
---------- Begin Simulation Statistics ----------
final_tick                               132628696000                       # Number of ticks from beginning of simulation (restored from checkpoints and never reset)
host_inst_rate                                 227808                       # Simulator instruction rate (inst/s)
host_mem_usage                                 851664                       # Number of bytes of host memory used
host_op_rate                                   388276                       # Simulator op (including micro ops) rate (op/s)
host_seconds                                     6.95                       # Real time elapsed on the host
host_tick_rate                            19091625587                       # Simulator tick rate (ticks/s)
sim_freq                                 1000000000000                       # Frequency of simulated ticks
sim_insts                                     1582538                       # Number of instructions simulated
sim_ops                                       2697328                       # Number of ops (including micro ops) simulated
sim_seconds                                  0.132629                       # Number of seconds simulated
sim_ticks                                132628696000                       # Number of ticks simulated
system.cpu.Branches                            270555                       # Number of branches fetched
system.cpu.committedInsts                     1582538                       # Number of instructions committed
system.cpu.committedOps                       2697328                       # Number of ops (including micro ops) committed
system.cpu.dtb.rdAccesses                      368966                       # TLB accesses on read requests
system.cpu.dtb.rdMisses                           763                       # TLB misses on read requests
system.cpu.dtb.wrAccesses                      144671                       # TLB accesses on write requests
system.cpu.dtb.wrMisses                            67                       # TLB misses on write requests
system.cpu.idle_fraction                            0                       # Percentage of idle cycles
system.cpu.itb.rdAccesses                           0                       # TLB accesses on read requests
system.cpu.itb.rdMisses                             0                       # TLB misses on read requests
system.cpu.itb.wrAccesses                     2094878                       # TLB accesses on write requests
system.cpu.itb.wrMisses                           269                       # TLB misses on write requests
system.cpu.not_idle_fraction                        1                       # Percentage of non-idle cycles
system.cpu.numCycles                        265257392                       # number of cpu cycles simulated
system.cpu.numWorkItemsCompleted                    0                       # number of work items this cpu completed
system.cpu.numWorkItemsStarted                      0                       # number of work items this cpu started
system.cpu.num_busy_cycles                  265257392                       # Number of busy cycles
system.cpu.num_cc_register_reads              1684062                       # number of times the CC registers were read
system.cpu.num_cc_register_writes             1338780                       # number of times the CC registers were written
system.cpu.num_conditional_control_insts       240360                       # number of instructions that are conditional controls
system.cpu.num_fp_alu_accesses                  77469                       # Number of float alu accesses
system.cpu.num_fp_insts                         77469                       # number of float instructions
system.cpu.num_fp_register_reads               102780                       # number of times the floating registers were read
system.cpu.num_fp_register_writes               63621                       # number of times the floating registers were written
system.cpu.num_func_calls                       20193                       # number of times a function call or return occured
system.cpu.num_idle_cycles                          0                       # Number of idle cycles
system.cpu.num_int_alu_accesses               2634093                       # Number of integer alu accesses
system.cpu.num_int_insts                      2634093                       # number of integer instructions
system.cpu.num_int_register_reads             5351119                       # number of times the integer registers were read
system.cpu.num_int_register_writes            2281619                       # number of times the integer registers were written
system.cpu.num_load_insts                      368960                       # Number of load instructions
system.cpu.num_mem_refs                        513628                       # number of memory refs
system.cpu.num_store_insts                     144668                       # Number of store instructions
system.cpu.num_vec_alu_accesses                     0                       # Number of vector alu accesses
system.cpu.num_vec_insts                            0                       # number of vector instructions
system.cpu.num_vec_register_reads                   0                       # number of times the vector registers were read
system.cpu.num_vec_register_writes                  0                       # number of times the vector registers were written
system.cpu.op_class::No_OpClass                 16939      0.63%      0.63% # Class of executed instruction
system.cpu.op_class::IntAlu                   2104661     78.02%     78.65% # Class of executed instruction
system.cpu.op_class::IntMult                     1913      0.07%     78.72% # Class of executed instruction
system.cpu.op_class::IntDiv                     24008      0.89%     79.61% # Class of executed instruction
system.cpu.op_class::FloatAdd                    6618      0.25%     79.86% # Class of executed instruction
system.cpu.op_class::FloatCmp                       0      0.00%     79.86% # Class of executed instruction
system.cpu.op_class::FloatCvt                    1232      0.05%     79.90% # Class of executed instruction
system.cpu.op_class::FloatMult                   4000      0.15%     80.05% # Class of executed instruction
system.cpu.op_class::FloatMultAcc                   0      0.00%     80.05% # Class of executed instruction
system.cpu.op_class::FloatDiv                       0      0.00%     80.05% # Class of executed instruction
system.cpu.op_class::FloatMisc                      0      0.00%     80.05% # Class of executed instruction
system.cpu.op_class::FloatSqrt                      0      0.00%     80.05% # Class of executed instruction
system.cpu.op_class::SimdAdd                       16      0.00%     80.05% # Class of executed instruction
system.cpu.op_class::SimdAddAcc                     0      0.00%     80.05% # Class of executed instruction
system.cpu.op_class::SimdAlu                     4162      0.15%     80.21% # Class of executed instruction
system.cpu.op_class::SimdCmp                        0      0.00%     80.21% # Class of executed instruction
system.cpu.op_class::SimdCvt                      164      0.01%     80.21% # Class of executed instruction
system.cpu.op_class::SimdMisc                    4155      0.15%     80.37% # Class of executed instruction
system.cpu.op_class::SimdMult                       0      0.00%     80.37% # Class of executed instruction
system.cpu.op_class::SimdMultAcc                    0      0.00%     80.37% # Class of executed instruction
system.cpu.op_class::SimdShift                     24      0.00%     80.37% # Class of executed instruction
system.cpu.op_class::SimdShiftAcc                   0      0.00%     80.37% # Class of executed instruction
system.cpu.op_class::SimdDiv                        0      0.00%     80.37% # Class of executed instruction
system.cpu.op_class::SimdSqrt                       0      0.00%     80.37% # Class of executed instruction
system.cpu.op_class::SimdFloatAdd                6000      0.22%     80.59% # Class of executed instruction
system.cpu.op_class::SimdFloatAlu                   0      0.00%     80.59% # Class of executed instruction
system.cpu.op_class::SimdFloatCmp                   0      0.00%     80.59% # Class of executed instruction
system.cpu.op_class::SimdFloatCvt                4000      0.15%     80.74% # Class of executed instruction
system.cpu.op_class::SimdFloatDiv                2000      0.07%     80.81% # Class of executed instruction
system.cpu.op_class::SimdFloatMisc                  0      0.00%     80.81% # Class of executed instruction
system.cpu.op_class::SimdFloatMult               4000      0.15%     80.96% # Class of executed instruction
system.cpu.op_class::SimdFloatMultAcc               0      0.00%     80.96% # Class of executed instruction
system.cpu.op_class::SimdFloatSqrt                  0      0.00%     80.96% # Class of executed instruction
system.cpu.op_class::SimdReduceAdd                  0      0.00%     80.96% # Class of executed instruction
system.cpu.op_class::SimdReduceAlu                  0      0.00%     80.96% # Class of executed instruction
system.cpu.op_class::SimdReduceCmp                  0      0.00%     80.96% # Class of executed instruction
system.cpu.op_class::SimdFloatReduceAdd             0      0.00%     80.96% # Class of executed instruction
system.cpu.op_class::SimdFloatReduceCmp             0      0.00%     80.96% # Class of executed instruction
system.cpu.op_class::SimdAes                        0      0.00%     80.96% # Class of executed instruction
system.cpu.op_class::SimdAesMix                     0      0.00%     80.96% # Class of executed instruction
system.cpu.op_class::SimdSha1Hash                   0      0.00%     80.96% # Class of executed instruction
system.cpu.op_class::SimdSha1Hash2                  0      0.00%     80.96% # Class of executed instruction
system.cpu.op_class::SimdSha256Hash                 0      0.00%     80.96% # Class of executed instruction
system.cpu.op_class::SimdSha256Hash2                0      0.00%     80.96% # Class of executed instruction
system.cpu.op_class::SimdShaSigma2                  0      0.00%     80.96% # Class of executed instruction
system.cpu.op_class::SimdShaSigma3                  0      0.00%     80.96% # Class of executed instruction
system.cpu.op_class::SimdPredAlu                    0      0.00%     80.96% # Class of executed instruction
system.cpu.op_class::MemRead                   352332     13.06%     94.02% # Class of executed instruction
system.cpu.op_class::MemWrite                  132203      4.90%     98.92% # Class of executed instruction
system.cpu.op_class::FloatMemRead               16628      0.62%     99.54% # Class of executed instruction
system.cpu.op_class::FloatMemWrite              12465      0.46%    100.00% # Class of executed instruction
system.cpu.op_class::IprAccess                      0      0.00%    100.00% # Class of executed instruction
system.cpu.op_class::InstPrefetch                   0      0.00%    100.00% # Class of executed instruction
system.cpu.op_class::total                    2697520                       # Class of executed instruction
system.cpu.workload.numSyscalls                    58                       # Number of system calls
system.membus.snoop_filter.hit_multi_requests            0                       # Number of requests hitting in the snoop filter with multiple (>1) holders of the requested data.
system.membus.snoop_filter.hit_multi_snoops            0                       # Number of snoops hitting in the snoop filter with multiple (>1) holders of the requested data.
system.membus.snoop_filter.hit_single_requests            0                       # Number of requests hitting in the snoop filter with a single holder of the requested data.
system.membus.snoop_filter.hit_single_snoops            0                       # Number of snoops hitting in the snoop filter with a single holder of the requested data.
system.membus.snoop_filter.tot_requests             0                       # Total number of requests made to the snoop filter.
system.membus.snoop_filter.tot_snoops               0                       # Total number of snoops made to the snoop filter.
system.membus.trans_dist::ReadReq             2463600                       # Transaction distribution
system.membus.trans_dist::ReadResp            2463599                       # Transaction distribution
system.membus.trans_dist::WriteReq             144647                       # Transaction distribution
system.membus.trans_dist::WriteResp            144647                       # Transaction distribution
system.membus.pkt_count_system.cpu.icache_port::system.mem_ctrls.port      4189603                       # Packet count per connected master and slave (bytes)
system.membus.pkt_count_system.cpu.icache_port::total      4189603                       # Packet count per connected master and slave (bytes)
system.membus.pkt_count_system.cpu.dcache_port::system.mem_ctrls.port      1026890                       # Packet count per connected master and slave (bytes)
system.membus.pkt_count_system.cpu.dcache_port::total      1026890                       # Packet count per connected master and slave (bytes)
system.membus.pkt_count::total                5216493                       # Packet count per connected master and slave (bytes)
system.membus.pkt_size_system.cpu.icache_port::system.mem_ctrls.port     16758408                       # Cumulative packet size per connected master and slave (bytes)
system.membus.pkt_size_system.cpu.icache_port::total     16758408                       # Cumulative packet size per connected master and slave (bytes)
system.membus.pkt_size_system.cpu.dcache_port::system.mem_ctrls.port      2972921                       # Cumulative packet size per connected master and slave (bytes)
system.membus.pkt_size_system.cpu.dcache_port::total      2972921                       # Cumulative packet size per connected master and slave (bytes)
system.membus.pkt_size::total                19731329                       # Cumulative packet size per connected master and slave (bytes)
system.membus.snoops                                0                       # Total snoops (count)
system.membus.snoopTraffic                          0                       # Total snoop traffic (bytes)
system.membus.snoop_fanout::samples           2608247                       # Request fanout histogram
system.membus.snoop_fanout::mean                    0                       # Request fanout histogram
system.membus.snoop_fanout::stdev                   0                       # Request fanout histogram
system.membus.snoop_fanout::underflows              0      0.00%      0.00% # Request fanout histogram
system.membus.snoop_fanout::0                 2608247    100.00%    100.00% # Request fanout histogram
system.membus.snoop_fanout::1                       0      0.00%    100.00% # Request fanout histogram
system.membus.snoop_fanout::overflows               0      0.00%    100.00% # Request fanout histogram
system.membus.snoop_fanout::min_value               0                       # Request fanout histogram
system.membus.snoop_fanout::max_value               0                       # Request fanout histogram
system.membus.snoop_fanout::total             2608247                       # Request fanout histogram
system.membus.reqLayer2.occupancy          2752894000                       # Layer occupancy (ticks)
system.membus.reqLayer2.utilization               2.1                       # Layer utilization (%)
system.membus.respLayer1.occupancy         4763650000                       # Layer occupancy (ticks)
system.membus.respLayer1.utilization              3.6                       # Layer utilization (%)
system.membus.respLayer2.occupancy         1010270250                       # Layer occupancy (ticks)
system.membus.respLayer2.utilization              0.8                       # Layer utilization (%)
system.membus.power_state.pwrStateResidencyTicks::UNDEFINED 132628696000                       # Cumulative time (in ticks) in various power states
system.voltage_domain.voltage                       1                       # Voltage in Volts
system.clk_domain.clock                          1000                       # Clock period in ticks
system.cpu_voltage_domain.voltage                   1                       # Voltage in Volts
system.mem_ctrls.bytes_read::.cpu.inst       16758408                       # Number of bytes read from this memory
system.mem_ctrls.bytes_read::.cpu.data        1930270                       # Number of bytes read from this memory
system.mem_ctrls.bytes_read::total           18688678                       # Number of bytes read from this memory
system.mem_ctrls.bytes_inst_read::.cpu.inst     16758408                       # Number of instructions bytes read from this memory
system.mem_ctrls.bytes_inst_read::total      16758408                       # Number of instructions bytes read from this memory
system.mem_ctrls.bytes_written::.cpu.data      1042651                       # Number of bytes written to this memory
system.mem_ctrls.bytes_written::total         1042651                       # Number of bytes written to this memory
system.mem_ctrls.num_reads::.cpu.inst         2094801                       # Number of read requests responded to by this memory
system.mem_ctrls.num_reads::.cpu.data          368798                       # Number of read requests responded to by this memory
system.mem_ctrls.num_reads::total             2463599                       # Number of read requests responded to by this memory
system.mem_ctrls.num_writes::.cpu.data         144647                       # Number of write requests responded to by this memory
system.mem_ctrls.num_writes::total             144647                       # Number of write requests responded to by this memory
system.mem_ctrls.bw_read::.cpu.inst         126355823                       # Total read bandwidth from this memory (bytes/s)
system.mem_ctrls.bw_read::.cpu.data          14553939                       # Total read bandwidth from this memory (bytes/s)
system.mem_ctrls.bw_read::total             140909762                       # Total read bandwidth from this memory (bytes/s)
system.mem_ctrls.bw_inst_read::.cpu.inst    126355823                       # Instruction read bandwidth from this memory (bytes/s)
system.mem_ctrls.bw_inst_read::total        126355823                       # Instruction read bandwidth from this memory (bytes/s)
system.mem_ctrls.bw_write::.cpu.data          7861428                       # Write bandwidth from this memory (bytes/s)
system.mem_ctrls.bw_write::total              7861428                       # Write bandwidth from this memory (bytes/s)
system.mem_ctrls.bw_total::.cpu.inst        126355823                       # Total bandwidth to/from this memory (bytes/s)
system.mem_ctrls.bw_total::.cpu.data         22415368                       # Total bandwidth to/from this memory (bytes/s)
system.mem_ctrls.bw_total::total            148771191                       # Total bandwidth to/from this memory (bytes/s)
system.mem_ctrls.avgPriority_.cpu.inst::samples   2094802.00                       # Average QoS priority value for accepted requests
system.mem_ctrls.avgPriority_.cpu.data::samples    351071.00                       # Average QoS priority value for accepted requests
system.mem_ctrls.priorityMinLatency      0.000000018750                       # per QoS priority minimum request to response latency (s)
system.mem_ctrls.priorityMaxLatency      0.021289992750                       # per QoS priority maximum request to response latency (s)
system.mem_ctrls.numReadWriteTurnArounds          320                       # Number of turnarounds from READ to WRITE
system.mem_ctrls.numWriteReadTurnArounds          320                       # Number of turnarounds from WRITE to READ
system.mem_ctrls.numStayReadState             5059732                       # Number of times bus staying in READ state
system.mem_ctrls.numStayWriteState               4854                       # Number of times bus staying in WRITE state
system.mem_ctrls.readReqs                     2463600                       # Number of read requests accepted
system.mem_ctrls.writeReqs                     144647                       # Number of write requests accepted
system.mem_ctrls.readBursts                   2463600                       # Number of DRAM read bursts, including those serviced by the write queue
system.mem_ctrls.writeBursts                   144647                       # Number of DRAM write bursts, including those merged in the write queue
system.mem_ctrls.servicedByWrQ                  22906                       # Number of DRAM read bursts serviced by the write queue
system.mem_ctrls.mergedWrBursts                139468                       # Number of DRAM write bursts merged with an existing one
system.mem_ctrls.neitherReadNorWriteReqs            0                       # Number of requests that are neither read nor write
system.mem_ctrls.perBankRdBursts::0            380521                       # Per bank write bursts
system.mem_ctrls.perBankRdBursts::1             30629                       # Per bank write bursts
system.mem_ctrls.perBankRdBursts::2              9951                       # Per bank write bursts
system.mem_ctrls.perBankRdBursts::3             15437                       # Per bank write bursts
system.mem_ctrls.perBankRdBursts::4             54009                       # Per bank write bursts
system.mem_ctrls.perBankRdBursts::5             88631                       # Per bank write bursts
system.mem_ctrls.perBankRdBursts::6           1157497                       # Per bank write bursts
system.mem_ctrls.perBankRdBursts::7            375501                       # Per bank write bursts
system.mem_ctrls.perBankRdBursts::8             35922                       # Per bank write bursts
system.mem_ctrls.perBankRdBursts::9             16232                       # Per bank write bursts
system.mem_ctrls.perBankRdBursts::10            30445                       # Per bank write bursts
system.mem_ctrls.perBankRdBursts::11            10198                       # Per bank write bursts
system.mem_ctrls.perBankRdBursts::12            10830                       # Per bank write bursts
system.mem_ctrls.perBankRdBursts::13            50841                       # Per bank write bursts
system.mem_ctrls.perBankRdBursts::14           163300                       # Per bank write bursts
system.mem_ctrls.perBankRdBursts::15            10750                       # Per bank write bursts
system.mem_ctrls.perBankWrBursts::0               670                       # Per bank write bursts
system.mem_ctrls.perBankWrBursts::1               371                       # Per bank write bursts
system.mem_ctrls.perBankWrBursts::2                46                       # Per bank write bursts
system.mem_ctrls.perBankWrBursts::3               379                       # Per bank write bursts
system.mem_ctrls.perBankWrBursts::4               656                       # Per bank write bursts
system.mem_ctrls.perBankWrBursts::5              1178                       # Per bank write bursts
system.mem_ctrls.perBankWrBursts::6               206                       # Per bank write bursts
system.mem_ctrls.perBankWrBursts::7                 0                       # Per bank write bursts
system.mem_ctrls.perBankWrBursts::8                 0                       # Per bank write bursts
system.mem_ctrls.perBankWrBursts::9               123                       # Per bank write bursts
system.mem_ctrls.perBankWrBursts::10                8                       # Per bank write bursts
system.mem_ctrls.perBankWrBursts::11              207                       # Per bank write bursts
system.mem_ctrls.perBankWrBursts::12              322                       # Per bank write bursts
system.mem_ctrls.perBankWrBursts::13              137                       # Per bank write bursts
system.mem_ctrls.perBankWrBursts::14              440                       # Per bank write bursts
system.mem_ctrls.perBankWrBursts::15              412                       # Per bank write bursts
system.mem_ctrls.avgRdQLen                       1.00                       # Average read queue length when enqueuing
system.mem_ctrls.avgWrQLen                      26.76                       # Average write queue length when enqueuing
system.mem_ctrls.totQLat                   9447475000                       # Total ticks spent queuing
system.mem_ctrls.totBusLat                12203470000                       # Total ticks spent in databus transfers
system.mem_ctrls.totMemAccLat             55210487500                       # Total ticks spent from burst creation until serviced by the DRAM
system.mem_ctrls.avgQLat                      3870.82                       # Average queueing delay per DRAM burst
system.mem_ctrls.avgBusLat                    5000.00                       # Average bus latency per DRAM burst
system.mem_ctrls.avgMemAccLat                22620.82                       # Average memory access latency per DRAM burst
system.mem_ctrls.numRdRetry                         0                       # Number of times read queue was full causing retry
system.mem_ctrls.numWrRetry                         0                       # Number of times write queue was full causing retry
system.mem_ctrls.readRowHits                  2160254                       # Number of row buffer hits during reads
system.mem_ctrls.writeRowHits                    4493                       # Number of row buffer hits during writes
system.mem_ctrls.readRowHitRate                 88.51                       # Row buffer hit rate for reads
system.mem_ctrls.writeRowHitRate                86.75                       # Row buffer hit rate for writes
system.mem_ctrls.readPktSize::0                113275                       # Read request sizes (log2)
system.mem_ctrls.readPktSize::1                  8656                       # Read request sizes (log2)
system.mem_ctrls.readPktSize::2                 43812                       # Read request sizes (log2)
system.mem_ctrls.readPktSize::3               2297857                       # Read request sizes (log2)
system.mem_ctrls.readPktSize::4                     0                       # Read request sizes (log2)
system.mem_ctrls.readPktSize::5                     0                       # Read request sizes (log2)
system.mem_ctrls.readPktSize::6                     0                       # Read request sizes (log2)
system.mem_ctrls.writePktSize::0                 5487                       # Write request sizes (log2)
system.mem_ctrls.writePktSize::1                 1048                       # Write request sizes (log2)
system.mem_ctrls.writePktSize::2                17456                       # Write request sizes (log2)
system.mem_ctrls.writePktSize::3               120656                       # Write request sizes (log2)
system.mem_ctrls.writePktSize::4                    0                       # Write request sizes (log2)
system.mem_ctrls.writePktSize::5                    0                       # Write request sizes (log2)
system.mem_ctrls.writePktSize::6                    0                       # Write request sizes (log2)
system.mem_ctrls.rdQLenPdf::0                 2440688                       # What read queue length does an incoming req see
system.mem_ctrls.rdQLenPdf::1                       6                       # What read queue length does an incoming req see
system.mem_ctrls.rdQLenPdf::2                       0                       # What read queue length does an incoming req see
system.mem_ctrls.rdQLenPdf::3                       0                       # What read queue length does an incoming req see
system.mem_ctrls.rdQLenPdf::4                       0                       # What read queue length does an incoming req see
system.mem_ctrls.rdQLenPdf::5                       0                       # What read queue length does an incoming req see
system.mem_ctrls.rdQLenPdf::6                       0                       # What read queue length does an incoming req see
system.mem_ctrls.rdQLenPdf::7                       0                       # What read queue length does an incoming req see
system.mem_ctrls.rdQLenPdf::8                       0                       # What read queue length does an incoming req see
system.mem_ctrls.rdQLenPdf::9                       0                       # What read queue length does an incoming req see
system.mem_ctrls.rdQLenPdf::10                      0                       # What read queue length does an incoming req see
system.mem_ctrls.rdQLenPdf::11                      0                       # What read queue length does an incoming req see
system.mem_ctrls.rdQLenPdf::12                      0                       # What read queue length does an incoming req see
system.mem_ctrls.rdQLenPdf::13                      0                       # What read queue length does an incoming req see
system.mem_ctrls.rdQLenPdf::14                      0                       # What read queue length does an incoming req see
system.mem_ctrls.rdQLenPdf::15                      0                       # What read queue length does an incoming req see
system.mem_ctrls.rdQLenPdf::16                      0                       # What read queue length does an incoming req see
system.mem_ctrls.rdQLenPdf::17                      0                       # What read queue length does an incoming req see
system.mem_ctrls.rdQLenPdf::18                      0                       # What read queue length does an incoming req see
system.mem_ctrls.rdQLenPdf::19                      0                       # What read queue length does an incoming req see
system.mem_ctrls.rdQLenPdf::20                      0                       # What read queue length does an incoming req see
system.mem_ctrls.rdQLenPdf::21                      0                       # What read queue length does an incoming req see
system.mem_ctrls.rdQLenPdf::22                      0                       # What read queue length does an incoming req see
system.mem_ctrls.rdQLenPdf::23                      0                       # What read queue length does an incoming req see
system.mem_ctrls.rdQLenPdf::24                      0                       # What read queue length does an incoming req see
system.mem_ctrls.rdQLenPdf::25                      0                       # What read queue length does an incoming req see
system.mem_ctrls.rdQLenPdf::26                      0                       # What read queue length does an incoming req see
system.mem_ctrls.rdQLenPdf::27                      0                       # What read queue length does an incoming req see
system.mem_ctrls.rdQLenPdf::28                      0                       # What read queue length does an incoming req see
system.mem_ctrls.rdQLenPdf::29                      0                       # What read queue length does an incoming req see
system.mem_ctrls.rdQLenPdf::30                      0                       # What read queue length does an incoming req see
system.mem_ctrls.rdQLenPdf::31                      0                       # What read queue length does an incoming req see
system.mem_ctrls.wrQLenPdf::0                       1                       # What write queue length does an incoming req see
system.mem_ctrls.wrQLenPdf::1                       1                       # What write queue length does an incoming req see
system.mem_ctrls.wrQLenPdf::2                       1                       # What write queue length does an incoming req see
system.mem_ctrls.wrQLenPdf::3                       1                       # What write queue length does an incoming req see
system.mem_ctrls.wrQLenPdf::4                       1                       # What write queue length does an incoming req see
system.mem_ctrls.wrQLenPdf::5                       1                       # What write queue length does an incoming req see
system.mem_ctrls.wrQLenPdf::6                       1                       # What write queue length does an incoming req see
system.mem_ctrls.wrQLenPdf::7                       1                       # What write queue length does an incoming req see
system.mem_ctrls.wrQLenPdf::8                       1                       # What write queue length does an incoming req see
system.mem_ctrls.wrQLenPdf::9                       1                       # What write queue length does an incoming req see
system.mem_ctrls.wrQLenPdf::10                      1                       # What write queue length does an incoming req see
system.mem_ctrls.wrQLenPdf::11                      1                       # What write queue length does an incoming req see
system.mem_ctrls.wrQLenPdf::12                      1                       # What write queue length does an incoming req see
system.mem_ctrls.wrQLenPdf::13                      1                       # What write queue length does an incoming req see
system.mem_ctrls.wrQLenPdf::14                      1                       # What write queue length does an incoming req see
system.mem_ctrls.wrQLenPdf::15                     17                       # What write queue length does an incoming req see
system.mem_ctrls.wrQLenPdf::16                     17                       # What write queue length does an incoming req see
system.mem_ctrls.wrQLenPdf::17                    321                       # What write queue length does an incoming req see
system.mem_ctrls.wrQLenPdf::18                    321                       # What write queue length does an incoming req see
system.mem_ctrls.wrQLenPdf::19                    321                       # What write queue length does an incoming req see
system.mem_ctrls.wrQLenPdf::20                    321                       # What write queue length does an incoming req see
system.mem_ctrls.wrQLenPdf::21                    321                       # What write queue length does an incoming req see
system.mem_ctrls.wrQLenPdf::22                    322                       # What write queue length does an incoming req see
system.mem_ctrls.wrQLenPdf::23                    322                       # What write queue length does an incoming req see
system.mem_ctrls.wrQLenPdf::24                    321                       # What write queue length does an incoming req see
system.mem_ctrls.wrQLenPdf::25                    320                       # What write queue length does an incoming req see
system.mem_ctrls.wrQLenPdf::26                    320                       # What write queue length does an incoming req see
system.mem_ctrls.wrQLenPdf::27                    320                       # What write queue length does an incoming req see
system.mem_ctrls.wrQLenPdf::28                    320                       # What write queue length does an incoming req see
system.mem_ctrls.wrQLenPdf::29                    320                       # What write queue length does an incoming req see
system.mem_ctrls.wrQLenPdf::30                    320                       # What write queue length does an incoming req see
system.mem_ctrls.wrQLenPdf::31                    320                       # What write queue length does an incoming req see
system.mem_ctrls.wrQLenPdf::32                    320                       # What write queue length does an incoming req see
system.mem_ctrls.wrQLenPdf::33                      0                       # What write queue length does an incoming req see
system.mem_ctrls.wrQLenPdf::34                      0                       # What write queue length does an incoming req see
system.mem_ctrls.wrQLenPdf::35                      0                       # What write queue length does an incoming req see
system.mem_ctrls.wrQLenPdf::36                      0                       # What write queue length does an incoming req see
system.mem_ctrls.wrQLenPdf::37                      0                       # What write queue length does an incoming req see
system.mem_ctrls.wrQLenPdf::38                      0                       # What write queue length does an incoming req see
system.mem_ctrls.wrQLenPdf::39                      0                       # What write queue length does an incoming req see
system.mem_ctrls.wrQLenPdf::40                      0                       # What write queue length does an incoming req see
system.mem_ctrls.wrQLenPdf::41                      0                       # What write queue length does an incoming req see
system.mem_ctrls.wrQLenPdf::42                      0                       # What write queue length does an incoming req see
system.mem_ctrls.wrQLenPdf::43                      0                       # What write queue length does an incoming req see
system.mem_ctrls.wrQLenPdf::44                      0                       # What write queue length does an incoming req see
system.mem_ctrls.wrQLenPdf::45                      0                       # What write queue length does an incoming req see
system.mem_ctrls.wrQLenPdf::46                      0                       # What write queue length does an incoming req see
system.mem_ctrls.wrQLenPdf::47                      0                       # What write queue length does an incoming req see
system.mem_ctrls.wrQLenPdf::48                      0                       # What write queue length does an incoming req see
system.mem_ctrls.wrQLenPdf::49                      0                       # What write queue length does an incoming req see
system.mem_ctrls.wrQLenPdf::50                      0                       # What write queue length does an incoming req see
system.mem_ctrls.wrQLenPdf::51                      0                       # What write queue length does an incoming req see
system.mem_ctrls.wrQLenPdf::52                      0                       # What write queue length does an incoming req see
system.mem_ctrls.wrQLenPdf::53                      0                       # What write queue length does an incoming req see
system.mem_ctrls.wrQLenPdf::54                      0                       # What write queue length does an incoming req see
system.mem_ctrls.wrQLenPdf::55                      0                       # What write queue length does an incoming req see
system.mem_ctrls.wrQLenPdf::56                      0                       # What write queue length does an incoming req see
system.mem_ctrls.wrQLenPdf::57                      0                       # What write queue length does an incoming req see
system.mem_ctrls.wrQLenPdf::58                      0                       # What write queue length does an incoming req see
system.mem_ctrls.wrQLenPdf::59                      0                       # What write queue length does an incoming req see
system.mem_ctrls.wrQLenPdf::60                      0                       # What write queue length does an incoming req see
system.mem_ctrls.wrQLenPdf::61                      0                       # What write queue length does an incoming req see
system.mem_ctrls.wrQLenPdf::62                      0                       # What write queue length does an incoming req see
system.mem_ctrls.wrQLenPdf::63                      0                       # What write queue length does an incoming req see
system.mem_ctrls.bytesPerActivate::samples       281100                       # Bytes accessed per row activation
system.mem_ctrls.bytesPerActivate::mean    556.860334                       # Bytes accessed per row activation
system.mem_ctrls.bytesPerActivate::gmean   338.619386                       # Bytes accessed per row activation
system.mem_ctrls.bytesPerActivate::stdev   414.853973                       # Bytes accessed per row activation
system.mem_ctrls.bytesPerActivate::0-127        73392     26.11%     26.11% # Bytes accessed per row activation
system.mem_ctrls.bytesPerActivate::128-255        28290     10.06%     36.17% # Bytes accessed per row activation
system.mem_ctrls.bytesPerActivate::256-383        17180      6.11%     42.28% # Bytes accessed per row activation
system.mem_ctrls.bytesPerActivate::384-511        15882      5.65%     47.93% # Bytes accessed per row activation
system.mem_ctrls.bytesPerActivate::512-639        10528      3.75%     51.68% # Bytes accessed per row activation
system.mem_ctrls.bytesPerActivate::640-767        15687      5.58%     57.26% # Bytes accessed per row activation
system.mem_ctrls.bytesPerActivate::768-895         9863      3.51%     60.77% # Bytes accessed per row activation
system.mem_ctrls.bytesPerActivate::896-1023         5990      2.13%     62.90% # Bytes accessed per row activation
system.mem_ctrls.bytesPerActivate::1024-1151       104288     37.10%    100.00% # Bytes accessed per row activation
system.mem_ctrls.bytesPerActivate::total       281100                       # Bytes accessed per row activation
system.mem_ctrls.rdPerTurnAround::samples          320                       # Reads before turning the bus around for writes
system.mem_ctrls.rdPerTurnAround::mean    7609.371875                       # Reads before turning the bus around for writes
system.mem_ctrls.rdPerTurnAround::stdev  12624.962637                       # Reads before turning the bus around for writes
system.mem_ctrls.rdPerTurnAround::0-4095          201     62.81%     62.81% # Reads before turning the bus around for writes
system.mem_ctrls.rdPerTurnAround::4096-8191           43     13.44%     76.25% # Reads before turning the bus around for writes
system.mem_ctrls.rdPerTurnAround::8192-12287           17      5.31%     81.56% # Reads before turning the bus around for writes
system.mem_ctrls.rdPerTurnAround::12288-16383           22      6.88%     88.44% # Reads before turning the bus around for writes
system.mem_ctrls.rdPerTurnAround::16384-20479            8      2.50%     90.94% # Reads before turning the bus around for writes
system.mem_ctrls.rdPerTurnAround::20480-24575            8      2.50%     93.44% # Reads before turning the bus around for writes
system.mem_ctrls.rdPerTurnAround::24576-28671            2      0.62%     94.06% # Reads before turning the bus around for writes
system.mem_ctrls.rdPerTurnAround::28672-32767            7      2.19%     96.25% # Reads before turning the bus around for writes
system.mem_ctrls.rdPerTurnAround::32768-36863            1      0.31%     96.56% # Reads before turning the bus around for writes
system.mem_ctrls.rdPerTurnAround::40960-45055            2      0.62%     97.19% # Reads before turning the bus around for writes
system.mem_ctrls.rdPerTurnAround::45056-49151            2      0.62%     97.81% # Reads before turning the bus around for writes
system.mem_ctrls.rdPerTurnAround::57344-61439            2      0.62%     98.44% # Reads before turning the bus around for writes
system.mem_ctrls.rdPerTurnAround::65536-69631            1      0.31%     98.75% # Reads before turning the bus around for writes
system.mem_ctrls.rdPerTurnAround::69632-73727            2      0.62%     99.38% # Reads before turning the bus around for writes
system.mem_ctrls.rdPerTurnAround::73728-77823            1      0.31%     99.69% # Reads before turning the bus around for writes
system.mem_ctrls.rdPerTurnAround::90112-94207            1      0.31%    100.00% # Reads before turning the bus around for writes
system.mem_ctrls.rdPerTurnAround::total           320                       # Reads before turning the bus around for writes
system.mem_ctrls.wrPerTurnAround::samples          320                       # Writes before turning the bus around for reads
system.mem_ctrls.wrPerTurnAround::mean      16.109375                       # Writes before turning the bus around for reads
system.mem_ctrls.wrPerTurnAround::gmean     16.102525                       # Writes before turning the bus around for reads
system.mem_ctrls.wrPerTurnAround::stdev      0.491852                       # Writes before turning the bus around for reads
system.mem_ctrls.wrPerTurnAround::16              304     95.00%     95.00% # Writes before turning the bus around for reads
system.mem_ctrls.wrPerTurnAround::18               14      4.38%     99.37% # Writes before turning the bus around for reads
system.mem_ctrls.wrPerTurnAround::19                1      0.31%     99.69% # Writes before turning the bus around for reads
system.mem_ctrls.wrPerTurnAround::20                1      0.31%    100.00% # Writes before turning the bus around for reads
system.mem_ctrls.wrPerTurnAround::total           320                       # Writes before turning the bus around for reads
system.mem_ctrls.bytesReadDRAM              156204416                       # Total number of bytes read from DRAM
system.mem_ctrls.bytesReadWrQ                 1465984                       # Total number of bytes read from write queue
system.mem_ctrls.bytesWritten                  329920                       # Total number of bytes written to DRAM
system.mem_ctrls.bytesReadSys                18688686                       # Total read bytes from the system interface side
system.mem_ctrls.bytesWrittenSys              1042651                       # Total written bytes from the system interface side
system.mem_ctrls.avgRdBW                      1177.76                       # Average DRAM read bandwidth in MiByte/s
system.mem_ctrls.avgWrBW                         2.49                       # Average achieved write bandwidth in MiByte/s
system.mem_ctrls.avgRdBWSys                    140.91                       # Average system read bandwidth in MiByte/s
system.mem_ctrls.avgWrBWSys                      7.86                       # Average system write bandwidth in MiByte/s
system.mem_ctrls.peakBW                      12800.00                       # Theoretical peak bandwidth in MiByte/s
system.mem_ctrls.busUtil                         9.22                       # Data bus utilization in percentage
system.mem_ctrls.busUtilRead                     9.20                       # Data bus utilization in percentage for reads
system.mem_ctrls.busUtilWrite                    0.02                       # Data bus utilization in percentage for writes
system.mem_ctrls.totGap                  132628619000                       # Total gap between requests
system.mem_ctrls.avgGap                      50849.72                       # Average gap between requests
system.mem_ctrls.masterReadBytes::.cpu.inst     16758416                       # Per-master bytes read from memory
system.mem_ctrls.masterReadBytes::.cpu.data      1749782                       # Per-master bytes read from memory
system.mem_ctrls.masterWriteBytes::.cpu.data        38718                       # Per-master bytes write to memory
system.mem_ctrls.masterReadRate::.cpu.inst 126355883.043591111898                       # Per-master bytes read from memory rate (Bytes/sec)
system.mem_ctrls.masterReadRate::.cpu.data 13193087.565303364769                       # Per-master bytes read from memory rate (Bytes/sec)
system.mem_ctrls.masterWriteRate::.cpu.data 291927.774061806384                       # Per-master bytes write to memory rate (Bytes/sec)
system.mem_ctrls.masterReadAccesses::.cpu.inst      2094802                       # Per-master read serviced memory accesses
system.mem_ctrls.masterReadAccesses::.cpu.data       368798                       # Per-master read serviced memory accesses
system.mem_ctrls.masterWriteAccesses::.cpu.data       144647                       # Per-master write serviced memory accesses
system.mem_ctrls.masterReadTotalLat::.cpu.inst  45850611750                       # Per-master read total memory access latency
system.mem_ctrls.masterReadTotalLat::.cpu.data   9359875750                       # Per-master read total memory access latency
system.mem_ctrls.masterWriteTotalLat::.cpu.data 3493195320000                       # Per-master write total memory access latency
system.mem_ctrls.masterReadAvgLat::.cpu.inst     21887.80                       # Per-master read average memory access latency
system.mem_ctrls.masterReadAvgLat::.cpu.data     25379.41                       # Per-master read average memory access latency
system.mem_ctrls.masterWriteAvgLat::.cpu.data  24149794.47                       # Per-master write average memory access latency
system.mem_ctrls.pageHitRate                    88.51                       # Row buffer hit rate, read and write combined
system.mem_ctrls.rank1.actEnergy            260345820                       # Energy for activate commands per rank (pJ)
system.mem_ctrls.rank1.preEnergy            138377085                       # Energy for precharge commands per rank (pJ)
system.mem_ctrls.rank1.readEnergy          2345618520                       # Energy for read commands per rank (pJ)
system.mem_ctrls.rank1.writeEnergy            8607780                       # Energy for write commands per rank (pJ)
system.mem_ctrls.rank1.refreshEnergy     10469163120.000002                       # Energy for refresh commands per rank (pJ)
system.mem_ctrls.rank1.actBackEnergy      31724546430                       # Energy for active background per rank (pJ)
system.mem_ctrls.rank1.preBackEnergy      24214011840                       # Energy for precharge background per rank (pJ)
system.mem_ctrls.rank1.actPowerDownEnergy            0                       # Energy for active power-down per rank (pJ)
system.mem_ctrls.rank1.prePowerDownEnergy            0                       # Energy for precharge power-down per rank (pJ)
system.mem_ctrls.rank1.selfRefreshEnergy            0                       # Energy for self refresh per rank (pJ)
system.mem_ctrls.rank1.totalEnergy        69160670595                       # Total energy per rank (pJ)
system.mem_ctrls.rank1.averagePower        521.460835                       # Core power per rank (mW)
system.mem_ctrls.rank1.totalIdleTime                0                       # Total Idle time Per DRAM Rank
system.mem_ctrls.rank1.memoryStateTime::IDLE  62636007000                       # Time in different power states
system.mem_ctrls.rank1.memoryStateTime::REF   4428580000                       # Time in different power states
system.mem_ctrls.rank1.memoryStateTime::SREF            0                       # Time in different power states
system.mem_ctrls.rank1.memoryStateTime::PRE_PDN            0                       # Time in different power states
system.mem_ctrls.rank1.memoryStateTime::ACT  65564109000                       # Time in different power states
system.mem_ctrls.rank1.memoryStateTime::ACT_PDN            0                       # Time in different power states
system.mem_ctrls.rank0.actEnergy           1746722460                       # Energy for activate commands per rank (pJ)
system.mem_ctrls.rank0.preEnergy            928397415                       # Energy for precharge commands per rank (pJ)
system.mem_ctrls.rank0.readEnergy         15080936640                       # Energy for read commands per rank (pJ)
system.mem_ctrls.rank0.writeEnergy           18301320                       # Energy for write commands per rank (pJ)
system.mem_ctrls.rank0.refreshEnergy     10469163120.000002                       # Energy for refresh commands per rank (pJ)
system.mem_ctrls.rank0.actBackEnergy      57972665100                       # Energy for active background per rank (pJ)
system.mem_ctrls.rank0.preBackEnergy       2110332960                       # Energy for precharge background per rank (pJ)
system.mem_ctrls.rank0.actPowerDownEnergy            0                       # Energy for active power-down per rank (pJ)
system.mem_ctrls.rank0.prePowerDownEnergy            0                       # Energy for precharge power-down per rank (pJ)
system.mem_ctrls.rank0.selfRefreshEnergy            0                       # Energy for self refresh per rank (pJ)
system.mem_ctrls.rank0.totalEnergy        88326519015                       # Total energy per rank (pJ)
system.mem_ctrls.rank0.averagePower        665.968389                       # Core power per rank (mW)
system.mem_ctrls.rank0.totalIdleTime                0                       # Total Idle time Per DRAM Rank
system.mem_ctrls.rank0.memoryStateTime::IDLE   4385977500                       # Time in different power states
system.mem_ctrls.rank0.memoryStateTime::REF   4428580000                       # Time in different power states
system.mem_ctrls.rank0.memoryStateTime::SREF            0                       # Time in different power states
system.mem_ctrls.rank0.memoryStateTime::PRE_PDN            0                       # Time in different power states
system.mem_ctrls.rank0.memoryStateTime::ACT 123814138500                       # Time in different power states
system.mem_ctrls.rank0.memoryStateTime::ACT_PDN            0                       # Time in different power states
system.mem_ctrls.power_state.pwrStateResidencyTicks::UNDEFINED 132628696000                       # Cumulative time (in ticks) in various power states
system.cpu_clk_domain.clock                       500                       # Clock period in ticks
system.cpu.dtb.walker.power_state.pwrStateResidencyTicks::UNDEFINED 132628696000                       # Cumulative time (in ticks) in various power states
system.cpu.interrupts.clk_domain.clock           8000                       # Clock period in ticks
system.cpu.itb.walker.power_state.pwrStateResidencyTicks::UNDEFINED 132628696000                       # Cumulative time (in ticks) in various power states
system.cpu.power_state.numTransitions               1                       # Number of power state transitions
system.cpu.power_state.pwrStateResidencyTicks::ON 132628696000                       # Cumulative time (in ticks) in various power states

---------- End Simulation Statistics   ----------

---------- Begin Simulation Statistics ----------
final_tick                               133398964000                       # Number of ticks from beginning of simulation (restored from checkpoints and never reset)
host_inst_rate                               40907697                       # Simulator instruction rate (inst/s)
host_mem_usage                                 851664                       # Number of bytes of host memory used
host_op_rate                                 69569799                       # Simulator op (including micro ops) rate (op/s)
host_seconds                                     0.04                       # Real time elapsed on the host
host_tick_rate                            19762158203                       # Simulator tick rate (ticks/s)
sim_freq                                 1000000000000                       # Frequency of simulated ticks
sim_insts                                     1589546                       # Number of instructions simulated
sim_ops                                       2710344                       # Number of ops (including micro ops) simulated
sim_seconds                                  0.000770                       # Number of seconds simulated
sim_ticks                                   770268000                       # Number of ticks simulated
system.cpu.Branches                              1002                       # Number of branches fetched
system.cpu.committedInsts                        7008                       # Number of instructions committed
system.cpu.committedOps                         13016                       # Number of ops (including micro ops) committed
system.cpu.dtb.rdAccesses                        2002                       # TLB accesses on read requests
system.cpu.dtb.rdMisses                             0                       # TLB misses on read requests
system.cpu.dtb.wrAccesses                        1001                       # TLB accesses on write requests
system.cpu.dtb.wrMisses                             0                       # TLB misses on write requests
system.cpu.idle_fraction                            0                       # Percentage of idle cycles
system.cpu.itb.rdAccesses                           0                       # TLB accesses on read requests
system.cpu.itb.rdMisses                             0                       # TLB misses on read requests
system.cpu.itb.wrAccesses                       12011                       # TLB accesses on write requests
system.cpu.itb.wrMisses                             0                       # TLB misses on write requests
system.cpu.not_idle_fraction                        1                       # Percentage of non-idle cycles
system.cpu.numCycles                          1540536                       # number of cpu cycles simulated
system.cpu.numWorkItemsCompleted                    0                       # number of work items this cpu completed
system.cpu.numWorkItemsStarted                      0                       # number of work items this cpu started
system.cpu.num_busy_cycles                    1540536                       # Number of busy cycles
system.cpu.num_cc_register_reads                 5003                       # number of times the CC registers were read
system.cpu.num_cc_register_writes                4006                       # number of times the CC registers were written
system.cpu.num_conditional_control_insts         1000                       # number of instructions that are conditional controls
system.cpu.num_fp_alu_accesses                   6002                       # Number of float alu accesses
system.cpu.num_fp_insts                          6002                       # number of float instructions
system.cpu.num_fp_register_reads                 7000                       # number of times the floating registers were read
system.cpu.num_fp_register_writes                5002                       # number of times the floating registers were written
system.cpu.num_func_calls                           2                       # number of times a function call or return occured
system.cpu.num_idle_cycles                          0                       # Number of idle cycles
system.cpu.num_int_alu_accesses                 10014                       # Number of integer alu accesses
system.cpu.num_int_insts                        10014                       # number of integer instructions
system.cpu.num_int_register_reads               17027                       # number of times the integer registers were read
system.cpu.num_int_register_writes               6009                       # number of times the integer registers were written
system.cpu.num_load_insts                        2002                       # Number of load instructions
system.cpu.num_mem_refs                          3003                       # number of memory refs
system.cpu.num_store_insts                       1001                       # Number of store instructions
system.cpu.num_vec_alu_accesses                     0                       # Number of vector alu accesses
system.cpu.num_vec_insts                            0                       # number of vector instructions
system.cpu.num_vec_register_reads                   0                       # number of times the vector registers were read
system.cpu.num_vec_register_writes                  0                       # number of times the vector registers were written
system.cpu.op_class::No_OpClass                     1      0.01%      0.01% # Class of executed instruction
system.cpu.op_class::IntAlu                      7011     53.86%     53.87% # Class of executed instruction
system.cpu.op_class::IntMult                        0      0.00%     53.87% # Class of executed instruction
system.cpu.op_class::IntDiv                         0      0.00%     53.87% # Class of executed instruction
system.cpu.op_class::FloatAdd                    1001      7.69%     61.56% # Class of executed instruction
system.cpu.op_class::FloatCmp                       0      0.00%     61.56% # Class of executed instruction
system.cpu.op_class::FloatCvt                       0      0.00%     61.56% # Class of executed instruction
system.cpu.op_class::FloatMult                      0      0.00%     61.56% # Class of executed instruction
system.cpu.op_class::FloatMultAcc                   0      0.00%     61.56% # Class of executed instruction
system.cpu.op_class::FloatDiv                       0      0.00%     61.56% # Class of executed instruction
system.cpu.op_class::FloatMisc                      0      0.00%     61.56% # Class of executed instruction
system.cpu.op_class::FloatSqrt                      0      0.00%     61.56% # Class of executed instruction
system.cpu.op_class::SimdAdd                        0      0.00%     61.56% # Class of executed instruction
system.cpu.op_class::SimdAddAcc                     0      0.00%     61.56% # Class of executed instruction
system.cpu.op_class::SimdAlu                        0      0.00%     61.56% # Class of executed instruction
system.cpu.op_class::SimdCmp                        0      0.00%     61.56% # Class of executed instruction
system.cpu.op_class::SimdCvt                        0      0.00%     61.56% # Class of executed instruction
system.cpu.op_class::SimdMisc                       0      0.00%     61.56% # Class of executed instruction
system.cpu.op_class::SimdMult                       0      0.00%     61.56% # Class of executed instruction
system.cpu.op_class::SimdMultAcc                    0      0.00%     61.56% # Class of executed instruction
system.cpu.op_class::SimdShift                      0      0.00%     61.56% # Class of executed instruction
system.cpu.op_class::SimdShiftAcc                   0      0.00%     61.56% # Class of executed instruction
system.cpu.op_class::SimdDiv                        0      0.00%     61.56% # Class of executed instruction
system.cpu.op_class::SimdSqrt                       0      0.00%     61.56% # Class of executed instruction
system.cpu.op_class::SimdFloatAdd                1000      7.68%     69.25% # Class of executed instruction
system.cpu.op_class::SimdFloatAlu                   0      0.00%     69.25% # Class of executed instruction
system.cpu.op_class::SimdFloatCmp                   0      0.00%     69.25% # Class of executed instruction
system.cpu.op_class::SimdFloatCvt                   0      0.00%     69.25% # Class of executed instruction
system.cpu.op_class::SimdFloatDiv                   0      0.00%     69.25% # Class of executed instruction
system.cpu.op_class::SimdFloatMisc                  0      0.00%     69.25% # Class of executed instruction
system.cpu.op_class::SimdFloatMult               1000      7.68%     76.93% # Class of executed instruction
system.cpu.op_class::SimdFloatMultAcc               0      0.00%     76.93% # Class of executed instruction
system.cpu.op_class::SimdFloatSqrt                  0      0.00%     76.93% # Class of executed instruction
system.cpu.op_class::SimdReduceAdd                  0      0.00%     76.93% # Class of executed instruction
system.cpu.op_class::SimdReduceAlu                  0      0.00%     76.93% # Class of executed instruction
system.cpu.op_class::SimdReduceCmp                  0      0.00%     76.93% # Class of executed instruction
system.cpu.op_class::SimdFloatReduceAdd             0      0.00%     76.93% # Class of executed instruction
system.cpu.op_class::SimdFloatReduceCmp             0      0.00%     76.93% # Class of executed instruction
system.cpu.op_class::SimdAes                        0      0.00%     76.93% # Class of executed instruction
system.cpu.op_class::SimdAesMix                     0      0.00%     76.93% # Class of executed instruction
system.cpu.op_class::SimdSha1Hash                   0      0.00%     76.93% # Class of executed instruction
system.cpu.op_class::SimdSha1Hash2                  0      0.00%     76.93% # Class of executed instruction
system.cpu.op_class::SimdSha256Hash                 0      0.00%     76.93% # Class of executed instruction
system.cpu.op_class::SimdSha256Hash2                0      0.00%     76.93% # Class of executed instruction
system.cpu.op_class::SimdShaSigma2                  0      0.00%     76.93% # Class of executed instruction
system.cpu.op_class::SimdShaSigma3                  0      0.00%     76.93% # Class of executed instruction
system.cpu.op_class::SimdPredAlu                    0      0.00%     76.93% # Class of executed instruction
system.cpu.op_class::MemRead                        1      0.01%     76.94% # Class of executed instruction
system.cpu.op_class::MemWrite                       1      0.01%     76.94% # Class of executed instruction
system.cpu.op_class::FloatMemRead                2001     15.37%     92.32% # Class of executed instruction
system.cpu.op_class::FloatMemWrite               1000      7.68%    100.00% # Class of executed instruction
system.cpu.op_class::IprAccess                      0      0.00%    100.00% # Class of executed instruction
system.cpu.op_class::InstPrefetch                   0      0.00%    100.00% # Class of executed instruction
system.cpu.op_class::total                      13016                       # Class of executed instruction
system.cpu.workload.numSyscalls                     0                       # Number of system calls
system.membus.snoop_filter.hit_multi_requests            0                       # Number of requests hitting in the snoop filter with multiple (>1) holders of the requested data.
system.membus.snoop_filter.hit_multi_snoops            0                       # Number of snoops hitting in the snoop filter with multiple (>1) holders of the requested data.
system.membus.snoop_filter.hit_single_requests            0                       # Number of requests hitting in the snoop filter with a single holder of the requested data.
system.membus.snoop_filter.hit_single_snoops            0                       # Number of snoops hitting in the snoop filter with a single holder of the requested data.
system.membus.snoop_filter.tot_requests             0                       # Total number of requests made to the snoop filter.
system.membus.snoop_filter.tot_snoops               0                       # Total number of snoops made to the snoop filter.
system.membus.trans_dist::ReadReq               14013                       # Transaction distribution
system.membus.trans_dist::ReadResp              14013                       # Transaction distribution
system.membus.trans_dist::WriteReq               1001                       # Transaction distribution
system.membus.trans_dist::WriteResp              1001                       # Transaction distribution
system.membus.pkt_count_system.cpu.icache_port::system.mem_ctrls.port        24022                       # Packet count per connected master and slave (bytes)
system.membus.pkt_count_system.cpu.icache_port::total        24022                       # Packet count per connected master and slave (bytes)
system.membus.pkt_count_system.cpu.dcache_port::system.mem_ctrls.port         6006                       # Packet count per connected master and slave (bytes)
system.membus.pkt_count_system.cpu.dcache_port::total         6006                       # Packet count per connected master and slave (bytes)
system.membus.pkt_count::total                  30028                       # Packet count per connected master and slave (bytes)
system.membus.pkt_size_system.cpu.icache_port::system.mem_ctrls.port        96088                       # Cumulative packet size per connected master and slave (bytes)
system.membus.pkt_size_system.cpu.icache_port::total        96088                       # Cumulative packet size per connected master and slave (bytes)
system.membus.pkt_size_system.cpu.dcache_port::system.mem_ctrls.port        24024                       # Cumulative packet size per connected master and slave (bytes)
system.membus.pkt_size_system.cpu.dcache_port::total        24024                       # Cumulative packet size per connected master and slave (bytes)
system.membus.pkt_size::total                  120112                       # Cumulative packet size per connected master and slave (bytes)
system.membus.snoops                                0                       # Total snoops (count)
system.membus.snoopTraffic                          0                       # Total snoop traffic (bytes)
system.membus.snoop_fanout::samples             15014                       # Request fanout histogram
system.membus.snoop_fanout::mean                    0                       # Request fanout histogram
system.membus.snoop_fanout::stdev                   0                       # Request fanout histogram
system.membus.snoop_fanout::underflows              0      0.00%      0.00% # Request fanout histogram
system.membus.snoop_fanout::0                   15014    100.00%    100.00% # Request fanout histogram
system.membus.snoop_fanout::1                       0      0.00%    100.00% # Request fanout histogram
system.membus.snoop_fanout::overflows               0      0.00%    100.00% # Request fanout histogram
system.membus.snoop_fanout::min_value               0                       # Request fanout histogram
system.membus.snoop_fanout::max_value               0                       # Request fanout histogram
system.membus.snoop_fanout::total               15014                       # Request fanout histogram
system.membus.reqLayer2.occupancy            16015000                       # Layer occupancy (ticks)
system.membus.reqLayer2.utilization               2.1                       # Layer utilization (%)
system.membus.respLayer1.occupancy           27377500                       # Layer occupancy (ticks)
system.membus.respLayer1.utilization              3.6                       # Layer utilization (%)
system.membus.respLayer2.occupancy            5810250                       # Layer occupancy (ticks)
system.membus.respLayer2.utilization              0.8                       # Layer utilization (%)
system.membus.power_state.pwrStateResidencyTicks::UNDEFINED    770268000                       # Cumulative time (in ticks) in various power states
system.voltage_domain.voltage                       1                       # Voltage in Volts
system.clk_domain.clock                          1000                       # Clock period in ticks
system.cpu_voltage_domain.voltage                   1                       # Voltage in Volts
system.mem_ctrls.bytes_read::.cpu.inst          96088                       # Number of bytes read from this memory
system.mem_ctrls.bytes_read::.cpu.data          16016                       # Number of bytes read from this memory
system.mem_ctrls.bytes_read::total             112104                       # Number of bytes read from this memory
system.mem_ctrls.bytes_inst_read::.cpu.inst        96088                       # Number of instructions bytes read from this memory
system.mem_ctrls.bytes_inst_read::total         96088                       # Number of instructions bytes read from this memory
system.mem_ctrls.bytes_written::.cpu.data         8008                       # Number of bytes written to this memory
system.mem_ctrls.bytes_written::total            8008                       # Number of bytes written to this memory
system.mem_ctrls.num_reads::.cpu.inst           12011                       # Number of read requests responded to by this memory
system.mem_ctrls.num_reads::.cpu.data            2002                       # Number of read requests responded to by this memory
system.mem_ctrls.num_reads::total               14013                       # Number of read requests responded to by this memory
system.mem_ctrls.num_writes::.cpu.data           1001                       # Number of write requests responded to by this memory
system.mem_ctrls.num_writes::total               1001                       # Number of write requests responded to by this memory
system.mem_ctrls.bw_read::.cpu.inst         124746192                       # Total read bandwidth from this memory (bytes/s)
system.mem_ctrls.bw_read::.cpu.data          20792763                       # Total read bandwidth from this memory (bytes/s)
system.mem_ctrls.bw_read::total             145538955                       # Total read bandwidth from this memory (bytes/s)
system.mem_ctrls.bw_inst_read::.cpu.inst    124746192                       # Instruction read bandwidth from this memory (bytes/s)
system.mem_ctrls.bw_inst_read::total        124746192                       # Instruction read bandwidth from this memory (bytes/s)
system.mem_ctrls.bw_write::.cpu.data         10396382                       # Write bandwidth from this memory (bytes/s)
system.mem_ctrls.bw_write::total             10396382                       # Write bandwidth from this memory (bytes/s)
system.mem_ctrls.bw_total::.cpu.inst        124746192                       # Total bandwidth to/from this memory (bytes/s)
system.mem_ctrls.bw_total::.cpu.data         31189145                       # Total bandwidth to/from this memory (bytes/s)
system.mem_ctrls.bw_total::total            155935337                       # Total bandwidth to/from this memory (bytes/s)
system.mem_ctrls.avgPriority_.cpu.inst::samples     12011.00                       # Average QoS priority value for accepted requests
system.mem_ctrls.avgPriority_.cpu.data::samples      2129.00                       # Average QoS priority value for accepted requests
system.mem_ctrls.priorityMinLatency      0.000000018750                       # per QoS priority minimum request to response latency (s)
system.mem_ctrls.priorityMaxLatency      0.002601293250                       # per QoS priority maximum request to response latency (s)
system.mem_ctrls.numReadWriteTurnArounds            8                       # Number of turnarounds from READ to WRITE
system.mem_ctrls.numWriteReadTurnArounds            8                       # Number of turnarounds from WRITE to READ
system.mem_ctrls.numStayReadState               29215                       # Number of times bus staying in READ state
system.mem_ctrls.numStayWriteState                120                       # Number of times bus staying in WRITE state
system.mem_ctrls.readReqs                       14013                       # Number of read requests accepted
system.mem_ctrls.writeReqs                       1001                       # Number of write requests accepted
system.mem_ctrls.readBursts                     14013                       # Number of DRAM read bursts, including those serviced by the write queue
system.mem_ctrls.writeBursts                     1001                       # Number of DRAM write bursts, including those merged in the write queue
system.mem_ctrls.servicedByWrQ                      1                       # Number of DRAM read bursts serviced by the write queue
system.mem_ctrls.mergedWrBursts                   873                       # Number of DRAM write bursts merged with an existing one
system.mem_ctrls.neitherReadNorWriteReqs            0                       # Number of requests that are neither read nor write
system.mem_ctrls.perBankRdBursts::0             12556                       # Per bank write bursts
system.mem_ctrls.perBankRdBursts::1                 0                       # Per bank write bursts
system.mem_ctrls.perBankRdBursts::2                 0                       # Per bank write bursts
system.mem_ctrls.perBankRdBursts::3                 0                       # Per bank write bursts
system.mem_ctrls.perBankRdBursts::4               432                       # Per bank write bursts
system.mem_ctrls.perBankRdBursts::5               512                       # Per bank write bursts
system.mem_ctrls.perBankRdBursts::6                 0                       # Per bank write bursts
system.mem_ctrls.perBankRdBursts::7                 0                       # Per bank write bursts
system.mem_ctrls.perBankRdBursts::8                 0                       # Per bank write bursts
system.mem_ctrls.perBankRdBursts::9                 0                       # Per bank write bursts
system.mem_ctrls.perBankRdBursts::10                0                       # Per bank write bursts
system.mem_ctrls.perBankRdBursts::11                0                       # Per bank write bursts
system.mem_ctrls.perBankRdBursts::12                0                       # Per bank write bursts
system.mem_ctrls.perBankRdBursts::13                0                       # Per bank write bursts
system.mem_ctrls.perBankRdBursts::14                0                       # Per bank write bursts
system.mem_ctrls.perBankRdBursts::15              512                       # Per bank write bursts
system.mem_ctrls.perBankWrBursts::0                17                       # Per bank write bursts
system.mem_ctrls.perBankWrBursts::1                 1                       # Per bank write bursts
system.mem_ctrls.perBankWrBursts::2                 0                       # Per bank write bursts
system.mem_ctrls.perBankWrBursts::3                 0                       # Per bank write bursts
system.mem_ctrls.perBankWrBursts::4                39                       # Per bank write bursts
system.mem_ctrls.perBankWrBursts::5                61                       # Per bank write bursts
system.mem_ctrls.perBankWrBursts::6                 0                       # Per bank write bursts
system.mem_ctrls.perBankWrBursts::7                 0                       # Per bank write bursts
system.mem_ctrls.perBankWrBursts::8                 0                       # Per bank write bursts
system.mem_ctrls.perBankWrBursts::9                 0                       # Per bank write bursts
system.mem_ctrls.perBankWrBursts::10                0                       # Per bank write bursts
system.mem_ctrls.perBankWrBursts::11                0                       # Per bank write bursts
system.mem_ctrls.perBankWrBursts::12                0                       # Per bank write bursts
system.mem_ctrls.perBankWrBursts::13                0                       # Per bank write bursts
system.mem_ctrls.perBankWrBursts::14                0                       # Per bank write bursts
system.mem_ctrls.perBankWrBursts::15               10                       # Per bank write bursts
system.mem_ctrls.avgRdQLen                       1.00                       # Average read queue length when enqueuing
system.mem_ctrls.avgWrQLen                      25.44                       # Average write queue length when enqueuing
system.mem_ctrls.totQLat                     61981250                       # Total ticks spent queuing
system.mem_ctrls.totBusLat                   70060000                       # Total ticks spent in databus transfers
system.mem_ctrls.totMemAccLat               324706250                       # Total ticks spent from burst creation until serviced by the DRAM
system.mem_ctrls.avgQLat                      4423.44                       # Average queueing delay per DRAM burst
system.mem_ctrls.avgBusLat                    5000.00                       # Average bus latency per DRAM burst
system.mem_ctrls.avgMemAccLat                23173.44                       # Average memory access latency per DRAM burst
system.mem_ctrls.numRdRetry                         0                       # Number of times read queue was full causing retry
[...]
system.mem_ctrls.wrQLenPdf::18                     19                       # What write queue length does an incoming req see
system.mem_ctrls.wrQLenPdf::19                     19                       # What write queue length does an incoming req see
system.mem_ctrls.wrQLenPdf::20                     20                       # What write queue length does an incoming req see
system.mem_ctrls.wrQLenPdf::21                     19                       # What write queue length does an incoming req see
system.mem_ctrls.wrQLenPdf::22                     19                       # What write queue length does an incoming req see
system.mem_ctrls.wrQLenPdf::23                     19                       # What write queue length does an incoming req see
system.mem_ctrls.wrQLenPdf::24                     20                       # What write queue length does an incoming req see
system.mem_ctrls.wrQLenPdf::25                     20                       # What write queue length does an incoming req see
system.mem_ctrls.wrQLenPdf::26                     20                       # What write queue length does an incoming req see
system.mem_ctrls.wrQLenPdf::27                     19                       # What write queue length does an incoming req see
system.mem_ctrls.wrQLenPdf::28                     19                       # What write queue length does an incoming req see
system.mem_ctrls.wrQLenPdf::29                     19                       # What write queue length does an incoming req see
system.mem_ctrls.wrQLenPdf::30                     19                       # What write queue length does an incoming req see
system.mem_ctrls.wrQLenPdf::31                     19                       # What write queue length does an incoming req see
system.mem_ctrls.wrQLenPdf::32                     19                       # What write queue length does an incoming req see
system.mem_ctrls.wrQLenPdf::33                      0                       # What write queue length does an incoming req see
system.mem_ctrls.wrQLenPdf::34                      0                       # What write queue length does an incoming req see
system.mem_ctrls.wrQLenPdf::35                      0                       # What write queue length does an incoming req see
system.mem_ctrls.wrQLenPdf::36                      0                       # What write queue length does an incoming req see
system.mem_ctrls.wrQLenPdf::37                      0                       # What write queue length does an incoming req see
system.mem_ctrls.wrQLenPdf::38                      0                       # What write queue length does an incoming req see
system.mem_ctrls.wrQLenPdf::39                      0                       # What write queue length does an incoming req see
system.mem_ctrls.wrQLenPdf::40                      0                       # What write queue length does an incoming req see
system.mem_ctrls.wrQLenPdf::41                      0                       # What write queue length does an incoming req see
system.mem_ctrls.wrQLenPdf::42                      0                       # What write queue length does an incoming req see
system.mem_ctrls.wrQLenPdf::43                      0                       # What write queue length does an incoming req see
system.mem_ctrls.wrQLenPdf::44                      0                       # What write queue length does an incoming req see
system.mem_ctrls.wrQLenPdf::45                      0                       # What write queue length does an incoming req see
system.mem_ctrls.wrQLenPdf::46                      0                       # What write queue length does an incoming req see
system.mem_ctrls.wrQLenPdf::47                      0                       # What write queue length does an incoming req see
system.mem_ctrls.wrQLenPdf::48                      0                       # What write queue length does an incoming req see
system.mem_ctrls.wrQLenPdf::49                      0                       # What write queue length does an incoming req see
system.mem_ctrls.wrQLenPdf::50                      0                       # What write queue length does an incoming req see
system.mem_ctrls.wrQLenPdf::51                      0                       # What write queue length does an incoming req see
system.mem_ctrls.wrQLenPdf::52                      0                       # What write queue length does an incoming req see
system.mem_ctrls.wrQLenPdf::53                      0                       # What write queue length does an incoming req see
system.mem_ctrls.wrQLenPdf::54                      0                       # What write queue length does an incoming req see
system.mem_ctrls.wrQLenPdf::55                      0                       # What write queue length does an incoming req see
system.mem_ctrls.wrQLenPdf::56                      0                       # What write queue length does an incoming req see
system.mem_ctrls.wrQLenPdf::57                      0                       # What write queue length does an incoming req see
system.mem_ctrls.wrQLenPdf::58                      0                       # What write queue length does an incoming req see
system.mem_ctrls.wrQLenPdf::59                      0                       # What write queue length does an incoming req see
system.mem_ctrls.wrQLenPdf::60                      0                       # What write queue length does an incoming req see
system.mem_ctrls.wrQLenPdf::61                      0                       # What write queue length does an incoming req see
system.mem_ctrls.wrQLenPdf::62                      0                       # What write queue length does an incoming req see
system.mem_ctrls.wrQLenPdf::63                      0                       # What write queue length does an incoming req see
system.mem_ctrls.bytesPerActivate::samples         5001                       # Bytes accessed per row activation
system.mem_ctrls.bytesPerActivate::mean    574.656269                       # Bytes accessed per row activation
system.mem_ctrls.bytesPerActivate::gmean   360.393510                       # Bytes accessed per row activation
system.mem_ctrls.bytesPerActivate::stdev   414.902474                       # Bytes accessed per row activation
system.mem_ctrls.bytesPerActivate::0-127         1096     21.92%     21.92% # Bytes accessed per row activation
system.mem_ctrls.bytesPerActivate::128-255          633     12.66%     34.57% # Bytes accessed per row activation
system.mem_ctrls.bytesPerActivate::256-383          367      7.34%     41.91% # Bytes accessed per row activation
system.mem_ctrls.bytesPerActivate::384-511          256      5.12%     47.03% # Bytes accessed per row activation
system.mem_ctrls.bytesPerActivate::512-639          219      4.38%     51.41% # Bytes accessed per row activation
system.mem_ctrls.bytesPerActivate::640-767          181      3.62%     55.03% # Bytes accessed per row activation
system.mem_ctrls.bytesPerActivate::768-895          127      2.54%     57.57% # Bytes accessed per row activation
system.mem_ctrls.bytesPerActivate::896-1023          165      3.30%     60.87% # Bytes accessed per row activation
system.mem_ctrls.bytesPerActivate::1024-1151         1957     39.13%    100.00% # Bytes accessed per row activation
system.mem_ctrls.bytesPerActivate::total         5001                       # Bytes accessed per row activation
system.mem_ctrls.rdPerTurnAround::samples           19                       # Reads before turning the bus around for writes
system.mem_ctrls.rdPerTurnAround::mean    2361.578947                       # Reads before turning the bus around for writes
system.mem_ctrls.rdPerTurnAround::gmean   1808.978484                       # Reads before turning the bus around for writes
system.mem_ctrls.rdPerTurnAround::stdev   1612.429889                       # Reads before turning the bus around for writes
system.mem_ctrls.rdPerTurnAround::0-255             1      5.26%      5.26% # Reads before turning the bus around for writes
system.mem_ctrls.rdPerTurnAround::512-767            1      5.26%     10.53% # Reads before turning the bus around for writes
system.mem_ctrls.rdPerTurnAround::768-1023            1      5.26%     15.79% # Reads before turning the bus around for writes
system.mem_ctrls.rdPerTurnAround::1024-1279            3     15.79%     31.58% # Reads before turning the bus around for writes
system.mem_ctrls.rdPerTurnAround::1536-1791            3     15.79%     47.37% # Reads before turning the bus around for writes
system.mem_ctrls.rdPerTurnAround::1792-2047            2     10.53%     57.89% # Reads before turning the bus around for writes
system.mem_ctrls.rdPerTurnAround::2304-2559            1      5.26%     63.16% # Reads before turning the bus around for writes
system.mem_ctrls.rdPerTurnAround::2560-2815            1      5.26%     68.42% # Reads before turning the bus around for writes
system.mem_ctrls.rdPerTurnAround::3072-3327            2     10.53%     78.95% # Reads before turning the bus around for writes
system.mem_ctrls.rdPerTurnAround::3584-3839            1      5.26%     84.21% # Reads before turning the bus around for writes
system.mem_ctrls.rdPerTurnAround::3840-4095            1      5.26%     89.47% # Reads before turning the bus around for writes
system.mem_ctrls.rdPerTurnAround::5632-5887            1      5.26%     94.74% # Reads before turning the bus around for writes
system.mem_ctrls.rdPerTurnAround::5888-6143            1      5.26%    100.00% # Reads before turning the bus around for writes
system.mem_ctrls.rdPerTurnAround::total            19                       # Reads before turning the bus around for writes
system.mem_ctrls.wrPerTurnAround::samples           19                       # Writes before turning the bus around for reads
system.mem_ctrls.wrPerTurnAround::mean      16.631579                       # Writes before turning the bus around for reads
system.mem_ctrls.wrPerTurnAround::gmean     16.595466                       # Writes before turning the bus around for reads
system.mem_ctrls.wrPerTurnAround::stdev      1.164785                       # Writes before turning the bus around for reads
system.mem_ctrls.wrPerTurnAround::16               14     73.68%     73.68% # Writes before turning the bus around for reads
system.mem_ctrls.wrPerTurnAround::18                4     21.05%     94.74% # Writes before turning the bus around for reads
system.mem_ctrls.wrPerTurnAround::20                1      5.26%    100.00% # Writes before turning the bus around for reads
system.mem_ctrls.wrPerTurnAround::total            19                       # Writes before turning the bus around for reads
system.mem_ctrls.bytesReadDRAM                2852928                       # Total number of bytes read from DRAM
system.mem_ctrls.bytesReadWrQ                   34880                       # Total number of bytes read from write queue
system.mem_ctrls.bytesWritten                   20224                       # Total number of bytes written to DRAM
system.mem_ctrls.bytesReadSys                  342732                       # Total read bytes from the system interface side
system.mem_ctrls.bytesWrittenSys                27248                       # Total written bytes from the system interface side
system.mem_ctrls.avgRdBW                      1165.00                       # Average DRAM read bandwidth in MiByte/s
system.mem_ctrls.avgWrBW                         8.26                       # Average achieved write bandwidth in MiByte/s
system.mem_ctrls.avgRdBWSys                    139.96                       # Average system read bandwidth in MiByte/s
system.mem_ctrls.avgWrBWSys                     11.13                       # Average system write bandwidth in MiByte/s
system.mem_ctrls.peakBW                      12800.00                       # Theoretical peak bandwidth in MiByte/s
system.mem_ctrls.busUtil                         9.17                       # Data bus utilization in percentage
system.mem_ctrls.busUtilRead                     9.10                       # Data bus utilization in percentage for reads
system.mem_ctrls.busUtilWrite                    0.06                       # Data bus utilization in percentage for writes
system.mem_ctrls.totGap                    2448812000                       # Total gap between requests
system.mem_ctrls.avgGap                      49691.80                       # Average gap between requests
system.mem_ctrls.masterReadBytes::.cpu.inst       291112                       # Per-master bytes read from memory
system.mem_ctrls.masterReadBytes::.cpu.data        47764                       # Per-master bytes read from memory
system.mem_ctrls.masterWriteBytes::.cpu.data         2224                       # Per-master bytes write to memory
system.mem_ctrls.masterReadRate::.cpu.inst 118876489.927358061075                       # Per-master bytes read from memory rate (Bytes/sec)
system.mem_ctrls.masterReadRate::.cpu.data 19504577.842515356839                       # Per-master bytes read from memory rate (Bytes/sec)
system.mem_ctrls.masterWriteRate::.cpu.data 908177.311819658149                       # Per-master bytes write to memory rate (Bytes/sec)
system.mem_ctrls.masterReadAccesses::.cpu.inst        36389                       # Per-master read serviced memory accesses
system.mem_ctrls.masterReadAccesses::.cpu.data         8733                       # Per-master read serviced memory accesses
system.mem_ctrls.masterWriteAccesses::.cpu.data         4158                       # Per-master write serviced memory accesses
system.mem_ctrls.masterReadTotalLat::.cpu.inst    791019500                       # Per-master read total memory access latency
system.mem_ctrls.masterReadTotalLat::.cpu.data    209737250                       # Per-master read total memory access latency
system.mem_ctrls.masterWriteTotalLat::.cpu.data  61706238000                       # Per-master write total memory access latency
system.mem_ctrls.masterReadAvgLat::.cpu.inst     21737.87                       # Per-master read average memory access latency
system.mem_ctrls.masterReadAvgLat::.cpu.data     24016.63                       # Per-master read average memory access latency
system.mem_ctrls.masterWriteAvgLat::.cpu.data  14840365.08                       # Per-master write average memory access latency
system.mem_ctrls.pageHitRate                    88.85                       # Row buffer hit rate, read and write combined
system.mem_ctrls.rank1.actEnergy             11445420                       # Energy for activate commands per rank (pJ)
system.mem_ctrls.rank1.preEnergy              6075795                       # Energy for precharge commands per rank (pJ)
system.mem_ctrls.rank1.readEnergy           100845360                       # Energy for read commands per rank (pJ)
system.mem_ctrls.rank1.writeEnergy             208800                       # Energy for write commands per rank (pJ)
system.mem_ctrls.rank1.refreshEnergy     193611600.000000                       # Energy for refresh commands per rank (pJ)
system.mem_ctrls.rank1.actBackEnergy        685365720                       # Energy for active background per rank (pJ)
system.mem_ctrls.rank1.preBackEnergy        363212160                       # Energy for precharge background per rank (pJ)
system.mem_ctrls.rank1.actPowerDownEnergy            0                       # Energy for active power-down per rank (pJ)
system.mem_ctrls.rank1.prePowerDownEnergy            0                       # Energy for precharge power-down per rank (pJ)
system.mem_ctrls.rank1.selfRefreshEnergy            0                       # Energy for self refresh per rank (pJ)
system.mem_ctrls.rank1.totalEnergy         1360764855                       # Total energy per rank (pJ)
system.mem_ctrls.rank1.averagePower        555.672558                       # Core power per rank (mW)
system.mem_ctrls.rank1.totalIdleTime                0                       # Total Idle time Per DRAM Rank
system.mem_ctrls.rank1.memoryStateTime::IDLE    937095250                       # Time in different power states
system.mem_ctrls.rank1.memoryStateTime::REF     81900000                       # Time in different power states
system.mem_ctrls.rank1.memoryStateTime::SREF            0                       # Time in different power states
system.mem_ctrls.rank1.memoryStateTime::PRE_PDN            0                       # Time in different power states
system.mem_ctrls.rank1.memoryStateTime::ACT   1429865750                       # Time in different power states
system.mem_ctrls.rank1.memoryStateTime::ACT_PDN            0                       # Time in different power states
system.mem_ctrls.rank0.actEnergy             24261720                       # Energy for activate commands per rank (pJ)
system.mem_ctrls.rank0.preEnergy             12903000                       # Energy for precharge commands per rank (pJ)
system.mem_ctrls.rank0.readEnergy           217434420                       # Energy for read commands per rank (pJ)
system.mem_ctrls.rank0.writeEnergy            1440720                       # Energy for write commands per rank (pJ)
system.mem_ctrls.rank0.refreshEnergy     193611600.000000                       # Energy for refresh commands per rank (pJ)
system.mem_ctrls.rank0.actBackEnergy       1069286940                       # Energy for active background per rank (pJ)
system.mem_ctrls.rank0.preBackEnergy         39910080                       # Energy for precharge background per rank (pJ)
system.mem_ctrls.rank0.actPowerDownEnergy            0                       # Energy for active power-down per rank (pJ)
system.mem_ctrls.rank0.prePowerDownEnergy            0                       # Energy for precharge power-down per rank (pJ)
system.mem_ctrls.rank0.selfRefreshEnergy            0                       # Energy for self refresh per rank (pJ)
system.mem_ctrls.rank0.totalEnergy         1558848480                       # Total energy per rank (pJ)
system.mem_ctrls.rank0.averagePower        636.560621                       # Core power per rank (mW)
system.mem_ctrls.rank0.totalIdleTime                0                       # Total Idle time Per DRAM Rank
system.mem_ctrls.rank0.memoryStateTime::IDLE     90728500                       # Time in different power states
system.mem_ctrls.rank0.memoryStateTime::REF     81900000                       # Time in different power states
system.mem_ctrls.rank0.memoryStateTime::SREF            0                       # Time in different power states
system.mem_ctrls.rank0.memoryStateTime::PRE_PDN            0                       # Time in different power states
system.mem_ctrls.rank0.memoryStateTime::ACT   2276232500                       # Time in different power states
system.mem_ctrls.rank0.memoryStateTime::ACT_PDN            0                       # Time in different power states
system.mem_ctrls.power_state.pwrStateResidencyTicks::UNDEFINED   2448861000                       # Cumulative time (in ticks) in various power states
system.cpu_clk_domain.clock                       500                       # Clock period in ticks
system.cpu.dtb.walker.power_state.pwrStateResidencyTicks::UNDEFINED 135847825000                       # Cumulative time (in ticks) in various power states
system.cpu.interrupts.clk_domain.clock           8000                       # Clock period in ticks
system.cpu.itb.walker.power_state.pwrStateResidencyTicks::UNDEFINED 135847825000                       # Cumulative time (in ticks) in various power states
system.cpu.power_state.numTransitions               1                       # Number of power state transitions
system.cpu.power_state.pwrStateResidencyTicks::ON 135847825000                       # Cumulative time (in ticks) in various power states

---------- End Simulation Statistics   ----------
