
---------- Begin Simulation Statistics ----------
final_tick                                36606919000                       # Number of ticks from beginning of simulation (restored from checkpoints and never reset)
host_inst_rate                                 217997                       # Simulator instruction rate (inst/s)
host_mem_usage                                 729072                       # Number of bytes of host memory used
host_op_rate                                   221977                       # Simulator op (including micro ops) rate (op/s)
host_seconds                                   458.72                       # Real time elapsed on the host
host_tick_rate                               79802027                       # Simulator tick rate (ticks/s)
sim_freq                                 1000000000000                       # Frequency of simulated ticks
sim_insts                                   100000003                       # Number of instructions simulated
sim_ops                                     101825782                       # Number of ops (including micro ops) simulated
sim_seconds                                  0.036607                       # Number of seconds simulated
sim_ticks                                 36606919000                       # Number of ticks simulated
system.cpu.branchPred.BTBCorrect                    0                       # Number of correct BTB predictions (this stat may not work properly.
system.cpu.branchPred.BTBHitPct             99.996089                       # BTB Hit Percentage
system.cpu.branchPred.BTBHits                13859550                       # Number of BTB hits
system.cpu.branchPred.BTBLookups             13860092                       # Number of BTB lookups
system.cpu.branchPred.RASInCorrect                  1                       # Number of incorrect RAS predictions.
system.cpu.branchPred.condIncorrect           1414659                       # Number of conditional branches incorrect
system.cpu.branchPred.condPredicted          22500974                       # Number of conditional branches predicted
system.cpu.branchPred.indirectHits                112                       # Number of indirect target hits.
system.cpu.branchPred.indirectLookups             310                       # Number of indirect predictor lookups.
system.cpu.branchPred.indirectMisses              198                       # Number of indirect misses.
system.cpu.branchPred.lookups                28770348                       # Number of BP lookups
system.cpu.branchPred.usedRAS                 1205591                       # Number of times the RAS was used to get a target.
system.cpu.branchPredindirectMispredicted           54                       # Number of mispredicted indirect branches.
system.cpu.cc_regfile_reads                  42675759                       # number of cc regfile reads
system.cpu.cc_regfile_writes                 43453944                       # number of cc regfile writes
system.cpu.commit.amos                              0                       # Number of atomic instructions committed
system.cpu.commit.branchMispredicts           1414407                       # The number of times a branch was mispredicted
system.cpu.commit.branches                   17149435                       # Number of branches committed
system.cpu.commit.bw_lim_events               5544648                       # number cycles where commit BW limit reached
system.cpu.commit.commitNonSpecStalls              60                       # The number of times commit has been forced to stall to communicate backwards
system.cpu.commit.commitSquashedInsts        41067952                       # The number of squashed insts skipped by commit
system.cpu.commit.committedInsts            100045641                       # Number of instructions committed
system.cpu.commit.committedOps              101871420                       # Number of ops (including micro ops) committed
system.cpu.commit.committed_per_cycle::samples     67219490                       # Number of insts commited each cycle
system.cpu.commit.committed_per_cycle::mean     1.515504                       # Number of insts commited each cycle
system.cpu.commit.committed_per_cycle::stdev     2.490390                       # Number of insts commited each cycle
system.cpu.commit.committed_per_cycle::underflows            0      0.00%      0.00% # Number of insts commited each cycle
system.cpu.commit.committed_per_cycle::0     37430985     55.68%     55.68% # Number of insts commited each cycle
system.cpu.commit.committed_per_cycle::1     11802671     17.56%     73.24% # Number of insts commited each cycle
system.cpu.commit.committed_per_cycle::2      4621736      6.88%     80.12% # Number of insts commited each cycle
system.cpu.commit.committed_per_cycle::3      2362271      3.51%     83.63% # Number of insts commited each cycle
system.cpu.commit.committed_per_cycle::4      1645740      2.45%     86.08% # Number of insts commited each cycle
system.cpu.commit.committed_per_cycle::5      1123793      1.67%     87.75% # Number of insts commited each cycle
system.cpu.commit.committed_per_cycle::6      1634167      2.43%     90.18% # Number of insts commited each cycle
system.cpu.commit.committed_per_cycle::7      1053479      1.57%     91.75% # Number of insts commited each cycle
system.cpu.commit.committed_per_cycle::8      5544648      8.25%    100.00% # Number of insts commited each cycle
system.cpu.commit.committed_per_cycle::overflows            0      0.00%    100.00% # Number of insts commited each cycle
system.cpu.commit.committed_per_cycle::min_value            0                       # Number of insts commited each cycle
system.cpu.commit.committed_per_cycle::max_value            8                       # Number of insts commited each cycle
system.cpu.commit.committed_per_cycle::total     67219490                       # Number of insts commited each cycle
system.cpu.commit.fp_insts                          0                       # Number of committed floating point instructions.
system.cpu.commit.function_calls               590401                       # Number of function calls committed.
system.cpu.commit.int_insts                  88952480                       # Number of committed integer instructions.
system.cpu.commit.loads                      26925371                       # Number of loads committed
system.cpu.commit.membars                          36                       # Number of memory barriers committed
system.cpu.commit.op_class_0::No_OpClass            9      0.00%      0.00% # Class of committed instruction
system.cpu.commit.op_class_0::IntAlu         64674654     63.49%     63.49% # Class of committed instruction
system.cpu.commit.op_class_0::IntMult             133      0.00%     63.49% # Class of committed instruction
system.cpu.commit.op_class_0::IntDiv                3      0.00%     63.49% # Class of committed instruction
system.cpu.commit.op_class_0::FloatAdd              0      0.00%     63.49% # Class of committed instruction
system.cpu.commit.op_class_0::FloatCmp              0      0.00%     63.49% # Class of committed instruction
system.cpu.commit.op_class_0::FloatCvt              0      0.00%     63.49% # Class of committed instruction
system.cpu.commit.op_class_0::FloatMult             0      0.00%     63.49% # Class of committed instruction
system.cpu.commit.op_class_0::FloatMultAcc            0      0.00%     63.49% # Class of committed instruction
system.cpu.commit.op_class_0::FloatDiv              0      0.00%     63.49% # Class of committed instruction
system.cpu.commit.op_class_0::FloatMisc             0      0.00%     63.49% # Class of committed instruction
system.cpu.commit.op_class_0::FloatSqrt             0      0.00%     63.49% # Class of committed instruction
system.cpu.commit.op_class_0::SimdAdd              29      0.00%     63.49% # Class of committed instruction
system.cpu.commit.op_class_0::SimdAddAcc            0      0.00%     63.49% # Class of committed instruction
system.cpu.commit.op_class_0::SimdAlu              34      0.00%     63.49% # Class of committed instruction
system.cpu.commit.op_class_0::SimdCmp              36      0.00%     63.49% # Class of committed instruction
system.cpu.commit.op_class_0::SimdCvt               0      0.00%     63.49% # Class of committed instruction
system.cpu.commit.op_class_0::SimdMisc             26      0.00%     63.49% # Class of committed instruction
system.cpu.commit.op_class_0::SimdMult              0      0.00%     63.49% # Class of committed instruction
system.cpu.commit.op_class_0::SimdMultAcc            0      0.00%     63.49% # Class of committed instruction
system.cpu.commit.op_class_0::SimdShift             0      0.00%     63.49% # Class of committed instruction
system.cpu.commit.op_class_0::SimdShiftAcc            0      0.00%     63.49% # Class of committed instruction
system.cpu.commit.op_class_0::SimdDiv               0      0.00%     63.49% # Class of committed instruction
system.cpu.commit.op_class_0::SimdSqrt              0      0.00%     63.49% # Class of committed instruction
system.cpu.commit.op_class_0::SimdFloatAdd            0      0.00%     63.49% # Class of committed instruction
system.cpu.commit.op_class_0::SimdFloatAlu            0      0.00%     63.49% # Class of committed instruction
system.cpu.commit.op_class_0::SimdFloatCmp            0      0.00%     63.49% # Class of committed instruction
system.cpu.commit.op_class_0::SimdFloatCvt            0      0.00%     63.49% # Class of committed instruction
system.cpu.commit.op_class_0::SimdFloatDiv            0      0.00%     63.49% # Class of committed instruction
system.cpu.commit.op_class_0::SimdFloatMisc            0      0.00%     63.49% # Class of committed instruction
system.cpu.commit.op_class_0::SimdFloatMult            0      0.00%     63.49% # Class of committed instruction
system.cpu.commit.op_class_0::SimdFloatMultAcc            0      0.00%     63.49% # Class of committed instruction
system.cpu.commit.op_class_0::SimdFloatSqrt            0      0.00%     63.49% # Class of committed instruction
system.cpu.commit.op_class_0::SimdReduceAdd            0      0.00%     63.49% # Class of committed instruction
system.cpu.commit.op_class_0::SimdReduceAlu            0      0.00%     63.49% # Class of committed instruction
system.cpu.commit.op_class_0::SimdReduceCmp            0      0.00%     63.49% # Class of committed instruction
system.cpu.commit.op_class_0::SimdFloatReduceAdd            0      0.00%     63.49% # Class of committed instruction
system.cpu.commit.op_class_0::SimdFloatReduceCmp            0      0.00%     63.49% # Class of committed instruction
system.cpu.commit.op_class_0::SimdAes               0      0.00%     63.49% # Class of committed instruction
system.cpu.commit.op_class_0::SimdAesMix            0      0.00%     63.49% # Class of committed instruction
system.cpu.commit.op_class_0::SimdSha1Hash            0      0.00%     63.49% # Class of committed instruction
system.cpu.commit.op_class_0::SimdSha1Hash2            0      0.00%     63.49% # Class of committed instruction
system.cpu.commit.op_class_0::SimdSha256Hash            0      0.00%     63.49% # Class of committed instruction
system.cpu.commit.op_class_0::SimdSha256Hash2            0      0.00%     63.49% # Class of committed instruction
system.cpu.commit.op_class_0::SimdShaSigma2            0      0.00%     63.49% # Class of committed instruction
system.cpu.commit.op_class_0::SimdShaSigma3            0      0.00%     63.49% # Class of committed instruction
system.cpu.commit.op_class_0::SimdPredAlu            0      0.00%     63.49% # Class of committed instruction
system.cpu.commit.op_class_0::MemRead        26925371     26.43%     89.92% # Class of committed instruction
system.cpu.commit.op_class_0::MemWrite       10271125     10.08%    100.00% # Class of committed instruction
system.cpu.commit.op_class_0::FloatMemRead            0      0.00%    100.00% # Class of committed instruction
system.cpu.commit.op_class_0::FloatMemWrite            0      0.00%    100.00% # Class of committed instruction
system.cpu.commit.op_class_0::IprAccess             0      0.00%    100.00% # Class of committed instruction
system.cpu.commit.op_class_0::InstPrefetch            0      0.00%    100.00% # Class of committed instruction
system.cpu.commit.op_class_0::total         101871420                       # Class of committed instruction
system.cpu.commit.refs                       37196496                       # Number of memory references committed
system.cpu.commit.swp_count                         0                       # Number of s/w prefetches committed
system.cpu.commit.vec_insts                       224                       # Number of committed Vector instructions.
system.cpu.committedInsts                   100000003                       # Number of Instructions Simulated
system.cpu.committedOps                     101825782                       # Number of Ops (including micro ops) Simulated
system.cpu.cpi                               0.732138                       # CPI: Cycles Per Instruction
system.cpu.cpi_total                         0.732138                       # CPI: Total CPI of All Threads
system.cpu.decode.BlockedCycles              25166740                       # Number of cycles decode is blocked
system.cpu.decode.BranchMispred                   261                       # Number of times decode detected a branch misprediction
system.cpu.decode.BranchResolved             13348603                       # Number of times decode resolved a branch
system.cpu.decode.DecodedInsts              155473624                       # Number of instructions handled by decode
system.cpu.decode.IdleCycles                 18137137                       # Number of cycles decode is idle
system.cpu.decode.RunCycles                  25217878                       # Number of cycles decode is running
system.cpu.decode.SquashCycles                1420528                       # Number of cycles decode is squashing
system.cpu.decode.SquashedInsts                   859                       # Number of squashed instructions handled by decode
system.cpu.decode.UnblockCycles               3221649                       # Number of cycles decode is unblocking
system.cpu.dtb.accesses                             0                       # DTB accesses
system.cpu.dtb.align_faults                         0                       # Number of TLB faults due to alignment restrictions
system.cpu.dtb.domain_faults                        0                       # Number of TLB faults due to domain restrictions
system.cpu.dtb.flush_entries                        0                       # Number of entries that have been flushed from TLB
system.cpu.dtb.flush_tlb                            0                       # Number of times complete TLB was flushed
system.cpu.dtb.flush_tlb_asid                       0                       # Number of times TLB was flushed by ASID
system.cpu.dtb.flush_tlb_mva                        0                       # Number of times TLB was flushed by MVA
system.cpu.dtb.flush_tlb_mva_asid                   0                       # Number of times TLB was flushed by MVA & ASID
system.cpu.dtb.hits                                 0                       # DTB hits
system.cpu.dtb.inst_accesses                        0                       # ITB inst accesses
system.cpu.dtb.inst_hits                            0                       # ITB inst hits
system.cpu.dtb.inst_misses                          0                       # ITB inst misses
system.cpu.dtb.misses                               0                       # DTB misses
system.cpu.dtb.perms_faults                         0                       # Number of TLB faults due to permissions restrictions
system.cpu.dtb.prefetch_faults                      0                       # Number of TLB faults due to prefetch
system.cpu.dtb.read_accesses                        0                       # DTB read accesses
system.cpu.dtb.read_hits                            0                       # DTB read hits
system.cpu.dtb.read_misses                          0                       # DTB read misses
system.cpu.dtb.stage2_mmu.stage2_tlb.accesses            0                       # DTB accesses
system.cpu.dtb.stage2_mmu.stage2_tlb.align_faults            0                       # Number of TLB faults due to alignment restrictions
system.cpu.dtb.stage2_mmu.stage2_tlb.domain_faults            0                       # Number of TLB faults due to domain restrictions
system.cpu.dtb.stage2_mmu.stage2_tlb.flush_entries            0                       # Number of entries that have been flushed from TLB
system.cpu.dtb.stage2_mmu.stage2_tlb.flush_tlb            0                       # Number of times complete TLB was flushed
system.cpu.dtb.stage2_mmu.stage2_tlb.flush_tlb_asid            0                       # Number of times TLB was flushed by ASID
system.cpu.dtb.stage2_mmu.stage2_tlb.flush_tlb_mva            0                       # Number of times TLB was flushed by MVA
system.cpu.dtb.stage2_mmu.stage2_tlb.flush_tlb_mva_asid            0                       # Number of times TLB was flushed by MVA & ASID
system.cpu.dtb.stage2_mmu.stage2_tlb.hits            0                       # DTB hits
system.cpu.dtb.stage2_mmu.stage2_tlb.inst_accesses            0                       # ITB inst accesses
system.cpu.dtb.stage2_mmu.stage2_tlb.inst_hits            0                       # ITB inst hits
system.cpu.dtb.stage2_mmu.stage2_tlb.inst_misses            0                       # ITB inst misses
system.cpu.dtb.stage2_mmu.stage2_tlb.misses            0                       # DTB misses
system.cpu.dtb.stage2_mmu.stage2_tlb.perms_faults            0                       # Number of TLB faults due to permissions restrictions
system.cpu.dtb.stage2_mmu.stage2_tlb.prefetch_faults            0                       # Number of TLB faults due to prefetch
system.cpu.dtb.stage2_mmu.stage2_tlb.read_accesses            0                       # DTB read accesses
system.cpu.dtb.stage2_mmu.stage2_tlb.read_hits            0                       # DTB read hits
system.cpu.dtb.stage2_mmu.stage2_tlb.read_misses            0                       # DTB read misses
system.cpu.dtb.stage2_mmu.stage2_tlb.walker.walkRequestOrigin_Requested::Data            0                       # Table walker requests started/completed, data/inst
system.cpu.dtb.stage2_mmu.stage2_tlb.walker.walkRequestOrigin_Requested::Inst            0                       # Table walker requests started/completed, data/inst
system.cpu.dtb.stage2_mmu.stage2_tlb.walker.walkRequestOrigin_Requested::total            0                       # Table walker requests started/completed, data/inst
system.cpu.dtb.stage2_mmu.stage2_tlb.walker.walkRequestOrigin_Completed::Data            0                       # Table walker requests started/completed, data/inst
system.cpu.dtb.stage2_mmu.stage2_tlb.walker.walkRequestOrigin_Completed::Inst            0                       # Table walker requests started/completed, data/inst
system.cpu.dtb.stage2_mmu.stage2_tlb.walker.walkRequestOrigin_Completed::total            0                       # Table walker requests started/completed, data/inst
system.cpu.dtb.stage2_mmu.stage2_tlb.walker.walkRequestOrigin::total            0                       # Table walker requests started/completed, data/inst
system.cpu.dtb.stage2_mmu.stage2_tlb.walker.walks            0                       # Table walker walks requested
system.cpu.dtb.stage2_mmu.stage2_tlb.write_accesses            0                       # DTB write accesses
system.cpu.dtb.stage2_mmu.stage2_tlb.write_hits            0                       # DTB write hits
system.cpu.dtb.stage2_mmu.stage2_tlb.write_misses            0                       # DTB write misses
system.cpu.dtb.walker.walkRequestOrigin_Requested::Data            0                       # Table walker requests started/completed, data/inst
system.cpu.dtb.walker.walkRequestOrigin_Requested::Inst            0                       # Table walker requests started/completed, data/inst
system.cpu.dtb.walker.walkRequestOrigin_Requested::total            0                       # Table walker requests started/completed, data/inst
system.cpu.dtb.walker.walkRequestOrigin_Completed::Data            0                       # Table walker requests started/completed, data/inst
system.cpu.dtb.walker.walkRequestOrigin_Completed::Inst            0                       # Table walker requests started/completed, data/inst
system.cpu.dtb.walker.walkRequestOrigin_Completed::total            0                       # Table walker requests started/completed, data/inst
system.cpu.dtb.walker.walkRequestOrigin::total            0                       # Table walker requests started/completed, data/inst
system.cpu.dtb.walker.walks                         0                       # Table walker walks requested
system.cpu.dtb.write_accesses                       0                       # DTB write accesses
system.cpu.dtb.write_hits                           0                       # DTB write hits
system.cpu.dtb.write_misses                         0                       # DTB write misses
system.cpu.fetch.Branches                    28770348                       # Number of branches that fetch encountered
system.cpu.fetch.CacheLines                  21987763                       # Number of cache lines fetched
system.cpu.fetch.Cycles                      49047951                       # Number of cycles fetch has run and was not squashing or blocked
system.cpu.fetch.IcacheSquashes                550834                       # Number of outstanding Icache misses that were squashed
system.cpu.fetch.IcacheWaitRetryStallCycles           34                       # Number of stall cycles due to full MSHR
system.cpu.fetch.Insts                      159339215                       # Number of instructions fetch has processed
system.cpu.fetch.MiscStallCycles                    2                       # Number of cycles fetch has spent waiting on interrupts, or bad addresses, or out of MSHRs
system.cpu.fetch.SquashCycles                 2841560                       # Number of cycles fetch has spent squashing
system.cpu.fetch.branchRate                  0.392963                       # Number of branch fetches per cycle
system.cpu.fetch.icacheStallCycles           22695165                       # Number of cycles fetch is stalled on an Icache miss
system.cpu.fetch.predictedBranches           15065253                       # Number of branches that fetch has predicted taken
system.cpu.fetch.rate                        2.176354                       # Number of inst fetches per cycle
system.cpu.fetch.rateDist::samples           73163932                       # Number of instructions fetched each cycle (Total)
system.cpu.fetch.rateDist::mean              2.209129                       # Number of instructions fetched each cycle (Total)
system.cpu.fetch.rateDist::stdev             3.080656                       # Number of instructions fetched each cycle (Total)
system.cpu.fetch.rateDist::underflows               0      0.00%      0.00% # Number of instructions fetched each cycle (Total)
system.cpu.fetch.rateDist::0                 40442449     55.28%     55.28% # Number of instructions fetched each cycle (Total)
system.cpu.fetch.rateDist::1                  5434943      7.43%     62.70% # Number of instructions fetched each cycle (Total)
system.cpu.fetch.rateDist::2                  3477575      4.75%     67.46% # Number of instructions fetched each cycle (Total)
system.cpu.fetch.rateDist::3                  3743491      5.12%     72.57% # Number of instructions fetched each cycle (Total)
system.cpu.fetch.rateDist::4                  3221201      4.40%     76.98% # Number of instructions fetched each cycle (Total)
system.cpu.fetch.rateDist::5                  1784252      2.44%     79.42% # Number of instructions fetched each cycle (Total)
system.cpu.fetch.rateDist::6                  1283048      1.75%     81.17% # Number of instructions fetched each cycle (Total)
system.cpu.fetch.rateDist::7                  1712108      2.34%     83.51% # Number of instructions fetched each cycle (Total)
system.cpu.fetch.rateDist::8                 12064865     16.49%    100.00% # Number of instructions fetched each cycle (Total)
system.cpu.fetch.rateDist::overflows                0      0.00%    100.00% # Number of instructions fetched each cycle (Total)
system.cpu.fetch.rateDist::min_value                0                       # Number of instructions fetched each cycle (Total)
system.cpu.fetch.rateDist::max_value                8                       # Number of instructions fetched each cycle (Total)
system.cpu.fetch.rateDist::total             73163932                       # Number of instructions fetched each cycle (Total)
system.cpu.idleCycles                           49907                       # Total number of cycles that the CPU has spent unscheduled due to idling
system.cpu.iew.branchMispredicts              1899482                       # Number of branch mispredicts detected at execute
system.cpu.iew.exec_branches                 21484959                       # Number of branches executed
system.cpu.iew.exec_nop                         64106                       # number of nop insts executed
system.cpu.iew.exec_rate                     1.831154                       # Inst execution rate
system.cpu.iew.exec_refs                     50296925                       # number of memory reference insts executed
system.cpu.iew.exec_stores                   11379429                       # Number of stores executed
system.cpu.iew.exec_swp                             0                       # number of swp insts executed
system.cpu.iew.iewBlockCycles                 8551094                       # Number of cycles IEW is blocking
system.cpu.iew.iewDispLoadInsts              36788871                       # Number of dispatched load instructions
system.cpu.iew.iewDispNonSpecInsts                 79                       # Number of dispatched non-speculative instructions
system.cpu.iew.iewDispSquashedInsts            192882                       # Number of squashed instructions skipped by dispatch
system.cpu.iew.iewDispStoreInsts             12631021                       # Number of dispatched store instructions
system.cpu.iew.iewDispatchedInsts           142953141                       # Number of instructions dispatched to IQ
system.cpu.iew.iewExecLoadInsts              38917496                       # Number of load instructions executed
system.cpu.iew.iewExecSquashedInsts           2563436                       # Number of squashed instructions skipped in execute
system.cpu.iew.iewExecutedInsts             134065834                       # Number of executed instructions
system.cpu.iew.iewIQFullEvents                 102322                       # Number of times the IQ has become full, causing a stall
system.cpu.iew.iewIdleCycles                        0                       # Number of cycles IEW is idle
system.cpu.iew.iewLSQFullEvents                809065                       # Number of times the LSQ has become full, causing a stall
system.cpu.iew.iewSquashCycles                1420528                       # Number of cycles IEW is squashing
system.cpu.iew.iewUnblockCycles                975244                       # Number of cycles IEW is unblocking
system.cpu.iew.lsq.thread0.blockedLoads             0                       # Number of blocked loads due to partial load-store forwarding
system.cpu.iew.lsq.thread0.cacheBlocked        539396                       # Number of times an access to memory failed due to the cache being blocked
system.cpu.iew.lsq.thread0.forwLoads          3553777                       # Number of loads that had data forwarded from stores
system.cpu.iew.lsq.thread0.ignoredResponses        19413                       # Number of memory responses ignored because the instruction is squashed
system.cpu.iew.lsq.thread0.invAddrLoads             0                       # Number of loads ignored due to an invalid address
system.cpu.iew.lsq.thread0.invAddrSwpfs             0                       # Number of software prefetches ignored due to an invalid address
system.cpu.iew.lsq.thread0.memOrderViolation         5187                       # Number of memory ordering violations
system.cpu.iew.lsq.thread0.rescheduledLoads      1567313                       # Number of loads that were rescheduled
system.cpu.iew.lsq.thread0.squashedLoads      9863498                       # Number of loads squashed
system.cpu.iew.lsq.thread0.squashedStores      2359894                       # Number of stores squashed
system.cpu.iew.memOrderViolationEvents           5187                       # Number of memory order violations
system.cpu.iew.predictedNotTakenIncorrect      1049123                       # Number of branches that were predicted not taken incorrectly
system.cpu.iew.predictedTakenIncorrect         850359                       # Number of branches that were predicted taken incorrectly
system.cpu.iew.wb_consumers                 125754286                       # num instructions consuming a value
system.cpu.iew.wb_count                     126189012                       # cumulative count of insts written-back
system.cpu.iew.wb_fanout                     0.614383                       # average fanout of values written-back
system.cpu.iew.wb_producers                  77261283                       # num instructions producing a value
system.cpu.iew.wb_rate                       1.723568                       # insts written-back per cycle
system.cpu.iew.wb_sent                      126883648                       # cumulative count of insts sent to commit
system.cpu.int_regfile_reads                182588478                       # number of integer regfile reads
system.cpu.int_regfile_writes                96309967                       # number of integer regfile writes
system.cpu.ipc                               1.365862                       # IPC: Instructions Per Cycle
system.cpu.ipc_total                         1.365862                       # IPC: Total IPC of All Threads
system.cpu.iq.FU_type_0::No_OpClass                10      0.00%      0.00% # Type of FU issued
system.cpu.iq.FU_type_0::IntAlu              85212247     62.37%     62.37% # Type of FU issued
system.cpu.iq.FU_type_0::IntMult                  158      0.00%     62.37% # Type of FU issued
system.cpu.iq.FU_type_0::IntDiv                     5      0.00%     62.37% # Type of FU issued
system.cpu.iq.FU_type_0::FloatAdd                   0      0.00%     62.37% # Type of FU issued
system.cpu.iq.FU_type_0::FloatCmp                   0      0.00%     62.37% # Type of FU issued
system.cpu.iq.FU_type_0::FloatCvt                   0      0.00%     62.37% # Type of FU issued
system.cpu.iq.FU_type_0::FloatMult                  0      0.00%     62.37% # Type of FU issued
system.cpu.iq.FU_type_0::FloatMultAcc               0      0.00%     62.37% # Type of FU issued
system.cpu.iq.FU_type_0::FloatDiv                   0      0.00%     62.37% # Type of FU issued
system.cpu.iq.FU_type_0::FloatMisc                  0      0.00%     62.37% # Type of FU issued
system.cpu.iq.FU_type_0::FloatSqrt                  0      0.00%     62.37% # Type of FU issued
system.cpu.iq.FU_type_0::SimdAdd                   35      0.00%     62.37% # Type of FU issued
system.cpu.iq.FU_type_0::SimdAddAcc                 0      0.00%     62.37% # Type of FU issued
system.cpu.iq.FU_type_0::SimdAlu                   38      0.00%     62.37% # Type of FU issued
system.cpu.iq.FU_type_0::SimdCmp                   40      0.00%     62.37% # Type of FU issued
system.cpu.iq.FU_type_0::SimdCvt                    0      0.00%     62.37% # Type of FU issued
system.cpu.iq.FU_type_0::SimdMisc                  28      0.00%     62.37% # Type of FU issued
system.cpu.iq.FU_type_0::SimdMult                   0      0.00%     62.37% # Type of FU issued
system.cpu.iq.FU_type_0::SimdMultAcc                0      0.00%     62.37% # Type of FU issued
system.cpu.iq.FU_type_0::SimdShift                  0      0.00%     62.37% # Type of FU issued
system.cpu.iq.FU_type_0::SimdShiftAcc               0      0.00%     62.37% # Type of FU issued
system.cpu.iq.FU_type_0::SimdDiv                    0      0.00%     62.37% # Type of FU issued
system.cpu.iq.FU_type_0::SimdSqrt                   0      0.00%     62.37% # Type of FU issued
system.cpu.iq.FU_type_0::SimdFloatAdd               0      0.00%     62.37% # Type of FU issued
system.cpu.iq.FU_type_0::SimdFloatAlu               0      0.00%     62.37% # Type of FU issued
system.cpu.iq.FU_type_0::SimdFloatCmp               0      0.00%     62.37% # Type of FU issued
system.cpu.iq.FU_type_0::SimdFloatCvt               0      0.00%     62.37% # Type of FU issued
system.cpu.iq.FU_type_0::SimdFloatDiv               0      0.00%     62.37% # Type of FU issued
system.cpu.iq.FU_type_0::SimdFloatMisc              0      0.00%     62.37% # Type of FU issued
system.cpu.iq.FU_type_0::SimdFloatMult              0      0.00%     62.37% # Type of FU issued
system.cpu.iq.FU_type_0::SimdFloatMultAcc            0      0.00%     62.37% # Type of FU issued
system.cpu.iq.FU_type_0::SimdFloatSqrt              0      0.00%     62.37% # Type of FU issued
system.cpu.iq.FU_type_0::SimdReduceAdd              0      0.00%     62.37% # Type of FU issued
system.cpu.iq.FU_type_0::SimdReduceAlu              0      0.00%     62.37% # Type of FU issued
system.cpu.iq.FU_type_0::SimdReduceCmp              0      0.00%     62.37% # Type of FU issued
system.cpu.iq.FU_type_0::SimdFloatReduceAdd            0      0.00%     62.37% # Type of FU issued
system.cpu.iq.FU_type_0::SimdFloatReduceCmp            0      0.00%     62.37% # Type of FU issued
system.cpu.iq.FU_type_0::SimdAes                    0      0.00%     62.37% # Type of FU issued
system.cpu.iq.FU_type_0::SimdAesMix                 0      0.00%     62.37% # Type of FU issued
system.cpu.iq.FU_type_0::SimdSha1Hash               0      0.00%     62.37% # Type of FU issued
system.cpu.iq.FU_type_0::SimdSha1Hash2              0      0.00%     62.37% # Type of FU issued
system.cpu.iq.FU_type_0::SimdSha256Hash             0      0.00%     62.37% # Type of FU issued
system.cpu.iq.FU_type_0::SimdSha256Hash2            0      0.00%     62.37% # Type of FU issued
system.cpu.iq.FU_type_0::SimdShaSigma2              0      0.00%     62.37% # Type of FU issued
system.cpu.iq.FU_type_0::SimdShaSigma3              0      0.00%     62.37% # Type of FU issued
system.cpu.iq.FU_type_0::SimdPredAlu                0      0.00%     62.37% # Type of FU issued
system.cpu.iq.FU_type_0::MemRead             39816198     29.14%     91.51% # Type of FU issued
system.cpu.iq.FU_type_0::MemWrite            11600514      8.49%    100.00% # Type of FU issued
system.cpu.iq.FU_type_0::FloatMemRead               0      0.00%    100.00% # Type of FU issued
system.cpu.iq.FU_type_0::FloatMemWrite              0      0.00%    100.00% # Type of FU issued
system.cpu.iq.FU_type_0::IprAccess                  0      0.00%    100.00% # Type of FU issued
system.cpu.iq.FU_type_0::InstPrefetch               0      0.00%    100.00% # Type of FU issued
system.cpu.iq.FU_type_0::total              136629273                       # Type of FU issued
system.cpu.iq.fp_alu_accesses                       0                       # Number of floating point alu accesses
system.cpu.iq.fp_inst_queue_reads                   0                       # Number of floating instruction queue reads
system.cpu.iq.fp_inst_queue_wakeup_accesses            0                       # Number of floating instruction queue wakeup accesses
system.cpu.iq.fp_inst_queue_writes                  0                       # Number of floating instruction queue writes
system.cpu.iq.fu_busy_cnt                     1672673                       # FU busy when requested
system.cpu.iq.fu_busy_rate                   0.012242                       # FU busy rate (busy events/executed inst)
system.cpu.iq.fu_full::No_OpClass                   0      0.00%      0.00% # attempts to use FU when none available
system.cpu.iq.fu_full::IntAlu                  313277     18.73%     18.73% # attempts to use FU when none available
system.cpu.iq.fu_full::IntMult                      0      0.00%     18.73% # attempts to use FU when none available
system.cpu.iq.fu_full::IntDiv                       0      0.00%     18.73% # attempts to use FU when none available
system.cpu.iq.fu_full::FloatAdd                     0      0.00%     18.73% # attempts to use FU when none available
system.cpu.iq.fu_full::FloatCmp                     0      0.00%     18.73% # attempts to use FU when none available
system.cpu.iq.fu_full::FloatCvt                     0      0.00%     18.73% # attempts to use FU when none available
system.cpu.iq.fu_full::FloatMult                    0      0.00%     18.73% # attempts to use FU when none available
system.cpu.iq.fu_full::FloatMultAcc                 0      0.00%     18.73% # attempts to use FU when none available
system.cpu.iq.fu_full::FloatDiv                     0      0.00%     18.73% # attempts to use FU when none available
system.cpu.iq.fu_full::FloatMisc                    0      0.00%     18.73% # attempts to use FU when none available
system.cpu.iq.fu_full::FloatSqrt                    0      0.00%     18.73% # attempts to use FU when none available
system.cpu.iq.fu_full::SimdAdd                      0      0.00%     18.73% # attempts to use FU when none available
system.cpu.iq.fu_full::SimdAddAcc                   0      0.00%     18.73% # attempts to use FU when none available
system.cpu.iq.fu_full::SimdAlu                      2      0.00%     18.73% # attempts to use FU when none available
system.cpu.iq.fu_full::SimdCmp                      3      0.00%     18.73% # attempts to use FU when none available
system.cpu.iq.fu_full::SimdCvt                      0      0.00%     18.73% # attempts to use FU when none available
system.cpu.iq.fu_full::SimdMisc                     0      0.00%     18.73% # attempts to use FU when none available
system.cpu.iq.fu_full::SimdMult                     0      0.00%     18.73% # attempts to use FU when none available
system.cpu.iq.fu_full::SimdMultAcc                  0      0.00%     18.73% # attempts to use FU when none available
system.cpu.iq.fu_full::SimdShift                    0      0.00%     18.73% # attempts to use FU when none available
system.cpu.iq.fu_full::SimdShiftAcc                 0      0.00%     18.73% # attempts to use FU when none available
system.cpu.iq.fu_full::SimdDiv                      0      0.00%     18.73% # attempts to use FU when none available
system.cpu.iq.fu_full::SimdSqrt                     0      0.00%     18.73% # attempts to use FU when none available
system.cpu.iq.fu_full::SimdFloatAdd                 0      0.00%     18.73% # attempts to use FU when none available
system.cpu.iq.fu_full::SimdFloatAlu                 0      0.00%     18.73% # attempts to use FU when none available
system.cpu.iq.fu_full::SimdFloatCmp                 0      0.00%     18.73% # attempts to use FU when none available
system.cpu.iq.fu_full::SimdFloatCvt                 0      0.00%     18.73% # attempts to use FU when none available
system.cpu.iq.fu_full::SimdFloatDiv                 0      0.00%     18.73% # attempts to use FU when none available
system.cpu.iq.fu_full::SimdFloatMisc                0      0.00%     18.73% # attempts to use FU when none available
system.cpu.iq.fu_full::SimdFloatMult                0      0.00%     18.73% # attempts to use FU when none available
system.cpu.iq.fu_full::SimdFloatMultAcc             0      0.00%     18.73% # attempts to use FU when none available
system.cpu.iq.fu_full::SimdFloatSqrt                0      0.00%     18.73% # attempts to use FU when none available
system.cpu.iq.fu_full::SimdReduceAdd                0      0.00%     18.73% # attempts to use FU when none available
system.cpu.iq.fu_full::SimdReduceAlu                0      0.00%     18.73% # attempts to use FU when none available
system.cpu.iq.fu_full::SimdReduceCmp                0      0.00%     18.73% # attempts to use FU when none available
system.cpu.iq.fu_full::SimdFloatReduceAdd            0      0.00%     18.73% # attempts to use FU when none available
system.cpu.iq.fu_full::SimdFloatReduceCmp            0      0.00%     18.73% # attempts to use FU when none available
system.cpu.iq.fu_full::SimdAes                      0      0.00%     18.73% # attempts to use FU when none available
system.cpu.iq.fu_full::SimdAesMix                   0      0.00%     18.73% # attempts to use FU when none available
system.cpu.iq.fu_full::SimdSha1Hash                 0      0.00%     18.73% # attempts to use FU when none available
system.cpu.iq.fu_full::SimdSha1Hash2                0      0.00%     18.73% # attempts to use FU when none available
system.cpu.iq.fu_full::SimdSha256Hash               0      0.00%     18.73% # attempts to use FU when none available
system.cpu.iq.fu_full::SimdSha256Hash2              0      0.00%     18.73% # attempts to use FU when none available
system.cpu.iq.fu_full::SimdShaSigma2                0      0.00%     18.73% # attempts to use FU when none available
system.cpu.iq.fu_full::SimdShaSigma3                0      0.00%     18.73% # attempts to use FU when none available
system.cpu.iq.fu_full::SimdPredAlu                  0      0.00%     18.73% # attempts to use FU when none available
system.cpu.iq.fu_full::MemRead                1316746     78.72%     97.45% # attempts to use FU when none available
system.cpu.iq.fu_full::MemWrite                 42645      2.55%    100.00% # attempts to use FU when none available
system.cpu.iq.fu_full::FloatMemRead                 0      0.00%    100.00% # attempts to use FU when none available
system.cpu.iq.fu_full::FloatMemWrite                0      0.00%    100.00% # attempts to use FU when none available
system.cpu.iq.fu_full::IprAccess                    0      0.00%    100.00% # attempts to use FU when none available
system.cpu.iq.fu_full::InstPrefetch                 0      0.00%    100.00% # attempts to use FU when none available
system.cpu.iq.int_alu_accesses              138301651                       # Number of integer alu accesses
system.cpu.iq.int_inst_queue_reads          348178943                       # Number of integer instruction queue reads
system.cpu.iq.int_inst_queue_wakeup_accesses    126188761                       # Number of integer instruction queue wakeup accesses
system.cpu.iq.int_inst_queue_writes         183956853                       # Number of integer instruction queue writes
system.cpu.iq.iqInstsAdded                  142888956                       # Number of instructions added to the IQ (excludes non-spec)
system.cpu.iq.iqInstsIssued                 136629273                       # Number of instructions issued
system.cpu.iq.iqNonSpecInstsAdded                  79                       # Number of non-speculative instructions added to the IQ
system.cpu.iq.iqSquashedInstsExamined        41063237                       # Number of squashed instructions iterated over during squash; mainly for profiling
system.cpu.iq.iqSquashedInstsIssued             84380                       # Number of squashed instructions issued
system.cpu.iq.iqSquashedNonSpecRemoved             19                       # Number of squashed non-spec instructions that were removed
system.cpu.iq.iqSquashedOperandsExamined     30384189                       # Number of squashed operands that are examined and possibly removed from graph
system.cpu.iq.issued_per_cycle::samples      73163932                       # Number of insts issued each cycle
system.cpu.iq.issued_per_cycle::mean         1.867440                       # Number of insts issued each cycle
system.cpu.iq.issued_per_cycle::stdev        2.034282                       # Number of insts issued each cycle
system.cpu.iq.issued_per_cycle::underflows            0      0.00%      0.00% # Number of insts issued each cycle
system.cpu.iq.issued_per_cycle::0            27967002     38.23%     38.23% # Number of insts issued each cycle
system.cpu.iq.issued_per_cycle::1            10664058     14.58%     52.80% # Number of insts issued each cycle
system.cpu.iq.issued_per_cycle::2            10704331     14.63%     67.43% # Number of insts issued each cycle
system.cpu.iq.issued_per_cycle::3             7803870     10.67%     78.10% # Number of insts issued each cycle
system.cpu.iq.issued_per_cycle::4             7119599      9.73%     87.83% # Number of insts issued each cycle
system.cpu.iq.issued_per_cycle::5             3920287      5.36%     93.19% # Number of insts issued each cycle
system.cpu.iq.issued_per_cycle::6             2727978      3.73%     96.92% # Number of insts issued each cycle
system.cpu.iq.issued_per_cycle::7             1357212      1.86%     98.77% # Number of insts issued each cycle
system.cpu.iq.issued_per_cycle::8              899595      1.23%    100.00% # Number of insts issued each cycle
system.cpu.iq.issued_per_cycle::overflows            0      0.00%    100.00% # Number of insts issued each cycle
system.cpu.iq.issued_per_cycle::min_value            0                       # Number of insts issued each cycle
system.cpu.iq.issued_per_cycle::max_value            8                       # Number of insts issued each cycle
system.cpu.iq.issued_per_cycle::total        73163932                       # Number of insts issued each cycle
system.cpu.iq.rate                           1.866167                       # Inst issue rate
system.cpu.iq.vec_alu_accesses                    285                       # Number of vector alu accesses
system.cpu.iq.vec_inst_queue_reads                585                       # Number of vector instruction queue reads
system.cpu.iq.vec_inst_queue_wakeup_accesses          251                       # Number of vector instruction queue wakeup accesses
system.cpu.iq.vec_inst_queue_writes               478                       # Number of vector instruction queue writes
system.cpu.itb.accesses                             0                       # DTB accesses
system.cpu.itb.align_faults                         0                       # Number of TLB faults due to alignment restrictions
system.cpu.itb.domain_faults                        0                       # Number of TLB faults due to domain restrictions
system.cpu.itb.flush_entries                        0                       # Number of entries that have been flushed from TLB
system.cpu.itb.flush_tlb                            0                       # Number of times complete TLB was flushed
system.cpu.itb.flush_tlb_asid                       0                       # Number of times TLB was flushed by ASID
system.cpu.itb.flush_tlb_mva                        0                       # Number of times TLB was flushed by MVA
system.cpu.itb.flush_tlb_mva_asid                   0                       # Number of times TLB was flushed by MVA & ASID
system.cpu.itb.hits                                 0                       # DTB hits
system.cpu.itb.inst_accesses                        0                       # ITB inst accesses
system.cpu.itb.inst_hits                            0                       # ITB inst hits
system.cpu.itb.inst_misses                          0                       # ITB inst misses
system.cpu.itb.misses                               0                       # DTB misses
system.cpu.itb.perms_faults                         0                       # Number of TLB faults due to permissions restrictions
system.cpu.itb.prefetch_faults                      0                       # Number of TLB faults due to prefetch
system.cpu.itb.read_accesses                        0                       # DTB read accesses
system.cpu.itb.read_hits                            0                       # DTB read hits
system.cpu.itb.read_misses                          0                       # DTB read misses
system.cpu.itb.stage2_mmu.stage2_tlb.accesses            0                       # DTB accesses
system.cpu.itb.stage2_mmu.stage2_tlb.align_faults            0                       # Number of TLB faults due to alignment restrictions
system.cpu.itb.stage2_mmu.stage2_tlb.domain_faults            0                       # Number of TLB faults due to domain restrictions
system.cpu.itb.stage2_mmu.stage2_tlb.flush_entries            0                       # Number of entries that have been flushed from TLB
system.cpu.itb.stage2_mmu.stage2_tlb.flush_tlb            0                       # Number of times complete TLB was flushed
system.cpu.itb.stage2_mmu.stage2_tlb.flush_tlb_asid            0                       # Number of times TLB was flushed by ASID
system.cpu.itb.stage2_mmu.stage2_tlb.flush_tlb_mva            0                       # Number of times TLB was flushed by MVA
system.cpu.itb.stage2_mmu.stage2_tlb.flush_tlb_mva_asid            0                       # Number of times TLB was flushed by MVA & ASID
system.cpu.itb.stage2_mmu.stage2_tlb.hits            0                       # DTB hits
system.cpu.itb.stage2_mmu.stage2_tlb.inst_accesses            0                       # ITB inst accesses
system.cpu.itb.stage2_mmu.stage2_tlb.inst_hits            0                       # ITB inst hits
system.cpu.itb.stage2_mmu.stage2_tlb.inst_misses            0                       # ITB inst misses
system.cpu.itb.stage2_mmu.stage2_tlb.misses            0                       # DTB misses
system.cpu.itb.stage2_mmu.stage2_tlb.perms_faults            0                       # Number of TLB faults due to permissions restrictions
system.cpu.itb.stage2_mmu.stage2_tlb.prefetch_faults            0                       # Number of TLB faults due to prefetch
system.cpu.itb.stage2_mmu.stage2_tlb.read_accesses            0                       # DTB read accesses
system.cpu.itb.stage2_mmu.stage2_tlb.read_hits            0                       # DTB read hits
system.cpu.itb.stage2_mmu.stage2_tlb.read_misses            0                       # DTB read misses
system.cpu.itb.stage2_mmu.stage2_tlb.walker.walkRequestOrigin_Requested::Data            0                       # Table walker requests started/completed, data/inst
system.cpu.itb.stage2_mmu.stage2_tlb.walker.walkRequestOrigin_Requested::Inst            0                       # Table walker requests started/completed, data/inst
system.cpu.itb.stage2_mmu.stage2_tlb.walker.walkRequestOrigin_Requested::total            0                       # Table walker requests started/completed, data/inst
system.cpu.itb.stage2_mmu.stage2_tlb.walker.walkRequestOrigin_Completed::Data            0                       # Table walker requests started/completed, data/inst
system.cpu.itb.stage2_mmu.stage2_tlb.walker.walkRequestOrigin_Completed::Inst            0                       # Table walker requests started/completed, data/inst
system.cpu.itb.stage2_mmu.stage2_tlb.walker.walkRequestOrigin_Completed::total            0                       # Table walker requests started/completed, data/inst
system.cpu.itb.stage2_mmu.stage2_tlb.walker.walkRequestOrigin::total            0                       # Table walker requests started/completed, data/inst
system.cpu.itb.stage2_mmu.stage2_tlb.walker.walks            0                       # Table walker walks requested
system.cpu.itb.stage2_mmu.stage2_tlb.write_accesses            0                       # DTB write accesses
system.cpu.itb.stage2_mmu.stage2_tlb.write_hits            0                       # DTB write hits
system.cpu.itb.stage2_mmu.stage2_tlb.write_misses            0                       # DTB write misses
system.cpu.itb.walker.walkRequestOrigin_Requested::Data            0                       # Table walker requests started/completed, data/inst
system.cpu.itb.walker.walkRequestOrigin_Requested::Inst            0                       # Table walker requests started/completed, data/inst
system.cpu.itb.walker.walkRequestOrigin_Requested::total            0                       # Table walker requests started/completed, data/inst
system.cpu.itb.walker.walkRequestOrigin_Completed::Data            0                       # Table walker requests started/completed, data/inst
system.cpu.itb.walker.walkRequestOrigin_Completed::Inst            0                       # Table walker requests started/completed, data/inst
system.cpu.itb.walker.walkRequestOrigin_Completed::total            0                       # Table walker requests started/completed, data/inst
system.cpu.itb.walker.walkRequestOrigin::total            0                       # Table walker requests started/completed, data/inst
system.cpu.itb.walker.walks                         0                       # Table walker walks requested
system.cpu.itb.write_accesses                       0                       # DTB write accesses
system.cpu.itb.write_hits                           0                       # DTB write hits
system.cpu.itb.write_misses                         0                       # DTB write misses
system.cpu.memDep0.conflictingLoads           7104184                       # Number of conflicting loads.
system.cpu.memDep0.conflictingStores          4360595                       # Number of conflicting stores.
system.cpu.memDep0.insertedLoads             36788871                       # Number of loads inserted to the mem dependence unit.
system.cpu.memDep0.insertedStores            12631021                       # Number of stores inserted to the mem dependence unit.
system.cpu.misc_regfile_reads                92386066                       # number of misc regfile reads
system.cpu.misc_regfile_writes                    145                       # number of misc regfile writes
system.cpu.numCycles                         73213839                       # number of cpu cycles simulated
system.cpu.numWorkItemsCompleted                    0                       # number of work items this cpu completed
system.cpu.numWorkItemsStarted                      0                       # number of work items this cpu started
system.cpu.rename.BlockCycles                11113428                       # Number of cycles rename is blocking
system.cpu.rename.CommittedMaps             110692464                       # Number of HB maps that are committed
system.cpu.rename.IQFullEvents                2890651                       # Number of times rename has blocked due to IQ full
system.cpu.rename.IdleCycles                 19794280                       # Number of cycles rename is idle
system.cpu.rename.LQFullEvents                2834215                       # Number of times rename has blocked due to LQ full
system.cpu.rename.ROBFullEvents                 53914                       # Number of times rename has blocked due to ROB full
system.cpu.rename.RenameLookups             260175815                       # Number of register rename lookups that rename has made
system.cpu.rename.RenamedInsts              151096627                       # Number of instructions processed by rename
system.cpu.rename.RenamedOperands           168411520                       # Number of destination operands rename has renamed
system.cpu.rename.RunCycles                  26553306                       # Number of cycles rename is running
system.cpu.rename.SQFullEvents                8422326                       # Number of times rename has blocked due to SQ full
system.cpu.rename.SquashCycles                1420528                       # Number of cycles rename is squashing
system.cpu.rename.UnblockCycles              14272707                       # Number of cycles rename is unblocking
system.cpu.rename.UndoneMaps                 57719022                       # Number of HB maps that are undone due to squashing
system.cpu.rename.int_rename_lookups        205818400                       # Number of integer rename lookups
system.cpu.rename.serializeStallCycles           9683                       # count of cycles rename stalled for serializing inst
system.cpu.rename.serializingInsts                202                       # count of serializing insts renamed
system.cpu.rename.skidInsts                  12927817                       # count of insts added to the skid buffer
system.cpu.rename.tempSerializingInsts             79                       # count of temporary serializing insts renamed
system.cpu.rename.vec_rename_lookups              486                       # Number of vector rename lookups
system.cpu.rob.rob_reads                    204591867                       # The number of ROB reads
system.cpu.rob.rob_writes                   291834604                       # The number of ROB writes
system.cpu.timesIdled                             456                       # Number of times that the entire CPU went into an idle state and unscheduled itself
system.cpu.vec_regfile_reads                      333                       # number of vector regfile reads
system.cpu.vec_regfile_writes                     167                       # number of vector regfile writes
system.cpu.workload.numSyscalls                    23                       # Number of system calls
system.membus.snoop_filter.hit_multi_requests            0                       # Number of requests hitting in the snoop filter with multiple (>1) holders of the requested data.
system.membus.snoop_filter.hit_multi_snoops            0                       # Number of snoops hitting in the snoop filter with multiple (>1) holders of the requested data.
system.membus.snoop_filter.hit_single_requests        98625                       # Number of requests hitting in the snoop filter with a single holder of the requested data.
system.membus.snoop_filter.hit_single_snoops            0                       # Number of snoops hitting in the snoop filter with a single holder of the requested data.
system.membus.snoop_filter.tot_requests        230272                       # Total number of requests made to the snoop filter.
system.membus.snoop_filter.tot_snoops               0                       # Total number of snoops made to the snoop filter.
system.tol2bus.snoop_filter.hit_multi_requests            1                       # Number of requests hitting in the snoop filter with multiple (>1) holders of the requested data.
system.tol2bus.snoop_filter.hit_multi_snoops            0                       # Number of snoops hitting in the snoop filter with multiple (>1) holders of the requested data.
system.tol2bus.snoop_filter.hit_single_requests      1283471                       # Number of requests hitting in the snoop filter with a single holder of the requested data.
system.tol2bus.snoop_filter.hit_single_snoops          326                       # Number of snoops hitting in the snoop filter with a single holder of the requested data.
system.tol2bus.snoop_filter.tot_requests      2568220                       # Total number of requests made to the snoop filter.
system.tol2bus.snoop_filter.tot_snoops            326                       # Total number of snoops made to the snoop filter.
system.membus.trans_dist::ReadResp              44178                       # Transaction distribution
system.membus.trans_dist::WritebackDirty        84972                       # Transaction distribution
system.membus.trans_dist::CleanEvict            13653                       # Transaction distribution
system.membus.trans_dist::ReadExReq             87462                       # Transaction distribution
system.membus.trans_dist::ReadExResp            87462                       # Transaction distribution
system.membus.trans_dist::ReadSharedReq         44178                       # Transaction distribution
system.membus.trans_dist::InvalidateReq             7                       # Transaction distribution
system.membus.pkt_count_system.l2.mem_side::system.mem_ctrls.port       361912                       # Packet count per connected master and slave (bytes)
system.membus.pkt_count::total                 361912                       # Packet count per connected master and slave (bytes)
system.membus.pkt_size_system.l2.mem_side::system.mem_ctrls.port     13863168                       # Cumulative packet size per connected master and slave (bytes)
system.membus.pkt_size::total                13863168                       # Cumulative packet size per connected master and slave (bytes)
system.membus.snoops                                0                       # Total snoops (count)
system.membus.snoopTraffic                          0                       # Total snoop traffic (bytes)
system.membus.snoop_fanout::samples            131647                       # Request fanout histogram
system.membus.snoop_fanout::mean                    0                       # Request fanout histogram
system.membus.snoop_fanout::stdev                   0                       # Request fanout histogram
system.membus.snoop_fanout::underflows              0      0.00%      0.00% # Request fanout histogram
system.membus.snoop_fanout::0                  131647    100.00%    100.00% # Request fanout histogram
system.membus.snoop_fanout::1                       0      0.00%    100.00% # Request fanout histogram
system.membus.snoop_fanout::overflows               0      0.00%    100.00% # Request fanout histogram
system.membus.snoop_fanout::min_value               0                       # Request fanout histogram
system.membus.snoop_fanout::max_value               0                       # Request fanout histogram
system.membus.snoop_fanout::total              131647                       # Request fanout histogram
system.membus.reqLayer0.occupancy           599264000                       # Layer occupancy (ticks)
system.membus.reqLayer0.utilization               1.6                       # Layer utilization (%)
system.membus.respLayer1.occupancy          708532250                       # Layer occupancy (ticks)
system.membus.respLayer1.utilization              1.9                       # Layer utilization (%)
system.membus.power_state.pwrStateResidencyTicks::UNDEFINED  36606919000                       # Cumulative time (in ticks) in various power states
system.tol2bus.trans_dist::ReadResp            877210                       # Transaction distribution
system.tol2bus.trans_dist::WritebackDirty       845792                       # Transaction distribution
system.tol2bus.trans_dist::WritebackClean          380                       # Transaction distribution
system.tol2bus.trans_dist::CleanEvict          536250                       # Transaction distribution
system.tol2bus.trans_dist::ReadExReq           407531                       # Transaction distribution
system.tol2bus.trans_dist::ReadExResp          407531                       # Transaction distribution
system.tol2bus.trans_dist::ReadCleanReq           634                       # Transaction distribution
system.tol2bus.trans_dist::ReadSharedReq       876576                       # Transaction distribution
system.tol2bus.trans_dist::InvalidateReq            8                       # Transaction distribution
system.tol2bus.trans_dist::InvalidateResp            8                       # Transaction distribution
system.tol2bus.pkt_count_system.cpu.icache.mem_side::system.l2.cpu_side         1648                       # Packet count per connected master and slave (bytes)
system.tol2bus.pkt_count_system.cpu.dcache.mem_side::system.l2.cpu_side      3851321                       # Packet count per connected master and slave (bytes)
system.tol2bus.pkt_count::total               3852969                       # Packet count per connected master and slave (bytes)
system.tol2bus.pkt_size_system.cpu.icache.mem_side::system.l2.cpu_side        64896                       # Cumulative packet size per connected master and slave (bytes)
system.tol2bus.pkt_size_system.cpu.dcache.mem_side::system.l2.cpu_side    130875328                       # Cumulative packet size per connected master and slave (bytes)
system.tol2bus.pkt_size::total              130940224                       # Cumulative packet size per connected master and slave (bytes)
system.tol2bus.snoops                           98951                       # Total snoops (count)
system.tol2bus.snoopTraffic                   5438208                       # Total snoop traffic (bytes)
system.tol2bus.snoop_fanout::samples          1383700                       # Request fanout histogram
system.tol2bus.snoop_fanout::mean            0.000236                       # Request fanout histogram
system.tol2bus.snoop_fanout::stdev           0.015371                       # Request fanout histogram
system.tol2bus.snoop_fanout::underflows             0      0.00%      0.00% # Request fanout histogram
system.tol2bus.snoop_fanout::0                1383373     99.98%     99.98% # Request fanout histogram
system.tol2bus.snoop_fanout::1                    327      0.02%    100.00% # Request fanout histogram
system.tol2bus.snoop_fanout::2                      0      0.00%    100.00% # Request fanout histogram
system.tol2bus.snoop_fanout::overflows              0      0.00%    100.00% # Request fanout histogram
system.tol2bus.snoop_fanout::min_value              0                       # Request fanout histogram
system.tol2bus.snoop_fanout::max_value              1                       # Request fanout histogram
system.tol2bus.snoop_fanout::total            1383700                       # Request fanout histogram
system.tol2bus.reqLayer0.occupancy         2045310000                       # Layer occupancy (ticks)
system.tol2bus.reqLayer0.utilization              5.6                       # Layer utilization (%)
system.tol2bus.respLayer1.occupancy        1926164500                       # Layer occupancy (ticks)
system.tol2bus.respLayer1.utilization             5.3                       # Layer utilization (%)
system.tol2bus.respLayer0.occupancy            952996                       # Layer occupancy (ticks)
system.tol2bus.respLayer0.utilization             0.0                       # Layer utilization (%)
system.tol2bus.power_state.pwrStateResidencyTicks::UNDEFINED  36606919000                       # Cumulative time (in ticks) in various power states
system.voltage_domain.voltage                       1                       # Voltage in Volts
system.clk_domain.clock                          1000                       # Clock period in ticks
system.l2.demand_hits::.cpu.inst                   52                       # number of demand (read+write) hits
system.l2.demand_hits::.cpu.data              1153049                       # number of demand (read+write) hits
system.l2.demand_hits::total                  1153101                       # number of demand (read+write) hits
system.l2.overall_hits::.cpu.inst                  52                       # number of overall hits
system.l2.overall_hits::.cpu.data             1153049                       # number of overall hits
system.l2.overall_hits::total                 1153101                       # number of overall hits
system.l2.demand_misses::.cpu.inst                582                       # number of demand (read+write) misses
system.l2.demand_misses::.cpu.data             131058                       # number of demand (read+write) misses
system.l2.demand_misses::total                 131640                       # number of demand (read+write) misses
system.l2.overall_misses::.cpu.inst               582                       # number of overall misses
system.l2.overall_misses::.cpu.data            131058                       # number of overall misses
system.l2.overall_misses::total                131640                       # number of overall misses
system.l2.demand_miss_latency::.cpu.inst     47491000                       # number of demand (read+write) miss cycles
system.l2.demand_miss_latency::.cpu.data  11848570500                       # number of demand (read+write) miss cycles
system.l2.demand_miss_latency::total      11896061500                       # number of demand (read+write) miss cycles
system.l2.overall_miss_latency::.cpu.inst     47491000                       # number of overall miss cycles
system.l2.overall_miss_latency::.cpu.data  11848570500                       # number of overall miss cycles
system.l2.overall_miss_latency::total     11896061500                       # number of overall miss cycles
system.l2.demand_accesses::.cpu.inst              634                       # number of demand (read+write) accesses
system.l2.demand_accesses::.cpu.data          1284107                       # number of demand (read+write) accesses
system.l2.demand_accesses::total              1284741                       # number of demand (read+write) accesses
system.l2.overall_accesses::.cpu.inst             634                       # number of overall (read+write) accesses
system.l2.overall_accesses::.cpu.data         1284107                       # number of overall (read+write) accesses
system.l2.overall_accesses::total             1284741                       # number of overall (read+write) accesses
system.l2.demand_miss_rate::.cpu.inst        0.917981                       # miss rate for demand accesses
system.l2.demand_miss_rate::.cpu.data        0.102062                       # miss rate for demand accesses
system.l2.demand_miss_rate::total            0.102464                       # miss rate for demand accesses
system.l2.overall_miss_rate::.cpu.inst       0.917981                       # miss rate for overall accesses
system.l2.overall_miss_rate::.cpu.data       0.102062                       # miss rate for overall accesses
system.l2.overall_miss_rate::total           0.102464                       # miss rate for overall accesses
system.l2.demand_avg_miss_latency::.cpu.inst 81599.656357                       # average overall miss latency
system.l2.demand_avg_miss_latency::.cpu.data 90407.075493                       # average overall miss latency
system.l2.demand_avg_miss_latency::total 90368.136585                       # average overall miss latency
system.l2.overall_avg_miss_latency::.cpu.inst 81599.656357                       # average overall miss latency
system.l2.overall_avg_miss_latency::.cpu.data 90407.075493                       # average overall miss latency
system.l2.overall_avg_miss_latency::total 90368.136585                       # average overall miss latency
system.l2.blocked_cycles::no_mshrs                  0                       # number of cycles access was blocked
system.l2.blocked_cycles::no_targets                0                       # number of cycles access was blocked
system.l2.blocked::no_mshrs                         0                       # number of cycles access was blocked
system.l2.blocked::no_targets                       0                       # number of cycles access was blocked
system.l2.avg_blocked_cycles::no_mshrs            nan                       # average number of cycles each access was blocked
system.l2.avg_blocked_cycles::no_targets          nan                       # average number of cycles each access was blocked
system.l2.writebacks::.writebacks               84972                       # number of writebacks
system.l2.writebacks::total                     84972                       # number of writebacks
system.l2.demand_mshr_misses::.cpu.inst           582                       # number of demand (read+write) MSHR misses
system.l2.demand_mshr_misses::.cpu.data        131058                       # number of demand (read+write) MSHR misses
system.l2.demand_mshr_misses::total            131640                       # number of demand (read+write) MSHR misses
system.l2.overall_mshr_misses::.cpu.inst          582                       # number of overall MSHR misses
system.l2.overall_mshr_misses::.cpu.data       131058                       # number of overall MSHR misses
system.l2.overall_mshr_misses::total           131640                       # number of overall MSHR misses
system.l2.demand_mshr_miss_latency::.cpu.inst     41671000                       # number of demand (read+write) MSHR miss cycles
system.l2.demand_mshr_miss_latency::.cpu.data  10537990500                       # number of demand (read+write) MSHR miss cycles
system.l2.demand_mshr_miss_latency::total  10579661500                       # number of demand (read+write) MSHR miss cycles
system.l2.overall_mshr_miss_latency::.cpu.inst     41671000                       # number of overall MSHR miss cycles
system.l2.overall_mshr_miss_latency::.cpu.data  10537990500                       # number of overall MSHR miss cycles
system.l2.overall_mshr_miss_latency::total  10579661500                       # number of overall MSHR miss cycles
system.l2.demand_mshr_miss_rate::.cpu.inst     0.917981                       # mshr miss rate for demand accesses
system.l2.demand_mshr_miss_rate::.cpu.data     0.102062                       # mshr miss rate for demand accesses
system.l2.demand_mshr_miss_rate::total       0.102464                       # mshr miss rate for demand accesses
system.l2.overall_mshr_miss_rate::.cpu.inst     0.917981                       # mshr miss rate for overall accesses
system.l2.overall_mshr_miss_rate::.cpu.data     0.102062                       # mshr miss rate for overall accesses
system.l2.overall_mshr_miss_rate::total      0.102464                       # mshr miss rate for overall accesses
system.l2.demand_avg_mshr_miss_latency::.cpu.inst 71599.656357                       # average overall mshr miss latency
system.l2.demand_avg_mshr_miss_latency::.cpu.data 80407.075493                       # average overall mshr miss latency
system.l2.demand_avg_mshr_miss_latency::total 80368.136585                       # average overall mshr miss latency
system.l2.overall_avg_mshr_miss_latency::.cpu.inst 71599.656357                       # average overall mshr miss latency
system.l2.overall_avg_mshr_miss_latency::.cpu.data 80407.075493                       # average overall mshr miss latency
system.l2.overall_avg_mshr_miss_latency::total 80368.136585                       # average overall mshr miss latency
system.l2.replacements                          98951                       # number of replacements
system.l2.WritebackDirty_hits::.writebacks       760820                       # number of WritebackDirty hits
system.l2.WritebackDirty_hits::total           760820                       # number of WritebackDirty hits
system.l2.WritebackDirty_accesses::.writebacks       760820                       # number of WritebackDirty accesses(hits+misses)
system.l2.WritebackDirty_accesses::total       760820                       # number of WritebackDirty accesses(hits+misses)
system.l2.WritebackClean_hits::.writebacks          380                       # number of WritebackClean hits
system.l2.WritebackClean_hits::total              380                       # number of WritebackClean hits
system.l2.WritebackClean_accesses::.writebacks          380                       # number of WritebackClean accesses(hits+misses)
system.l2.WritebackClean_accesses::total          380                       # number of WritebackClean accesses(hits+misses)
system.l2.ReadExReq_hits::.cpu.data            320069                       # number of ReadExReq hits
system.l2.ReadExReq_hits::total                320069                       # number of ReadExReq hits
system.l2.ReadExReq_misses::.cpu.data           87462                       # number of ReadExReq misses
system.l2.ReadExReq_misses::total               87462                       # number of ReadExReq misses
system.l2.ReadExReq_miss_latency::.cpu.data   8055755500                       # number of ReadExReq miss cycles
system.l2.ReadExReq_miss_latency::total    8055755500                       # number of ReadExReq miss cycles
system.l2.ReadExReq_accesses::.cpu.data        407531                       # number of ReadExReq accesses(hits+misses)
system.l2.ReadExReq_accesses::total            407531                       # number of ReadExReq accesses(hits+misses)
system.l2.ReadExReq_miss_rate::.cpu.data     0.214614                       # miss rate for ReadExReq accesses
system.l2.ReadExReq_miss_rate::total         0.214614                       # miss rate for ReadExReq accesses
system.l2.ReadExReq_avg_miss_latency::.cpu.data 92105.777366                       # average ReadExReq miss latency
system.l2.ReadExReq_avg_miss_latency::total 92105.777366                       # average ReadExReq miss latency
system.l2.ReadExReq_mshr_misses::.cpu.data        87462                       # number of ReadExReq MSHR misses
system.l2.ReadExReq_mshr_misses::total          87462                       # number of ReadExReq MSHR misses
system.l2.ReadExReq_mshr_miss_latency::.cpu.data   7181135500                       # number of ReadExReq MSHR miss cycles
system.l2.ReadExReq_mshr_miss_latency::total   7181135500                       # number of ReadExReq MSHR miss cycles
system.l2.ReadExReq_mshr_miss_rate::.cpu.data     0.214614                       # mshr miss rate for ReadExReq accesses
system.l2.ReadExReq_mshr_miss_rate::total     0.214614                       # mshr miss rate for ReadExReq accesses
system.l2.ReadExReq_avg_mshr_miss_latency::.cpu.data 82105.777366                       # average ReadExReq mshr miss latency
system.l2.ReadExReq_avg_mshr_miss_latency::total 82105.777366                       # average ReadExReq mshr miss latency
system.l2.ReadCleanReq_hits::.cpu.inst             52                       # number of ReadCleanReq hits
system.l2.ReadCleanReq_hits::total                 52                       # number of ReadCleanReq hits
system.l2.ReadCleanReq_misses::.cpu.inst          582                       # number of ReadCleanReq misses
system.l2.ReadCleanReq_misses::total              582                       # number of ReadCleanReq misses
system.l2.ReadCleanReq_miss_latency::.cpu.inst     47491000                       # number of ReadCleanReq miss cycles
system.l2.ReadCleanReq_miss_latency::total     47491000                       # number of ReadCleanReq miss cycles
system.l2.ReadCleanReq_accesses::.cpu.inst          634                       # number of ReadCleanReq accesses(hits+misses)
system.l2.ReadCleanReq_accesses::total            634                       # number of ReadCleanReq accesses(hits+misses)
system.l2.ReadCleanReq_miss_rate::.cpu.inst     0.917981                       # miss rate for ReadCleanReq accesses
system.l2.ReadCleanReq_miss_rate::total      0.917981                       # miss rate for ReadCleanReq accesses
system.l2.ReadCleanReq_avg_miss_latency::.cpu.inst 81599.656357                       # average ReadCleanReq miss latency
system.l2.ReadCleanReq_avg_miss_latency::total 81599.656357                       # average ReadCleanReq miss latency
system.l2.ReadCleanReq_mshr_misses::.cpu.inst          582                       # number of ReadCleanReq MSHR misses
system.l2.ReadCleanReq_mshr_misses::total          582                       # number of ReadCleanReq MSHR misses
system.l2.ReadCleanReq_mshr_miss_latency::.cpu.inst     41671000                       # number of ReadCleanReq MSHR miss cycles
system.l2.ReadCleanReq_mshr_miss_latency::total     41671000                       # number of ReadCleanReq MSHR miss cycles
system.l2.ReadCleanReq_mshr_miss_rate::.cpu.inst     0.917981                       # mshr miss rate for ReadCleanReq accesses
[...]
system.cpu.dcache.demand_hits::total         37649175                       # number of demand (read+write) hits
system.cpu.dcache.overall_hits::.cpu.data     37649294                       # number of overall hits
system.cpu.dcache.overall_hits::total        37649294                       # number of overall hits
system.cpu.dcache.demand_misses::.cpu.data      2342744                       # number of demand (read+write) misses
system.cpu.dcache.demand_misses::total        2342744                       # number of demand (read+write) misses
system.cpu.dcache.overall_misses::.cpu.data      2342747                       # number of overall misses
system.cpu.dcache.overall_misses::total       2342747                       # number of overall misses
system.cpu.dcache.demand_miss_latency::.cpu.data  66264493607                       # number of demand (read+write) miss cycles
system.cpu.dcache.demand_miss_latency::total  66264493607                       # number of demand (read+write) miss cycles
system.cpu.dcache.overall_miss_latency::.cpu.data  66264493607                       # number of overall miss cycles
system.cpu.dcache.overall_miss_latency::total  66264493607                       # number of overall miss cycles
system.cpu.dcache.demand_accesses::.cpu.data     39991919                       # number of demand (read+write) accesses
system.cpu.dcache.demand_accesses::total     39991919                       # number of demand (read+write) accesses
system.cpu.dcache.overall_accesses::.cpu.data     39992041                       # number of overall (read+write) accesses
system.cpu.dcache.overall_accesses::total     39992041                       # number of overall (read+write) accesses
system.cpu.dcache.demand_miss_rate::.cpu.data     0.058580                       # miss rate for demand accesses
system.cpu.dcache.demand_miss_rate::total     0.058580                       # miss rate for demand accesses
system.cpu.dcache.overall_miss_rate::.cpu.data     0.058580                       # miss rate for overall accesses
system.cpu.dcache.overall_miss_rate::total     0.058580                       # miss rate for overall accesses
system.cpu.dcache.demand_avg_miss_latency::.cpu.data 28284.991278                       # average overall miss latency
system.cpu.dcache.demand_avg_miss_latency::total 28284.991278                       # average overall miss latency
system.cpu.dcache.overall_avg_miss_latency::.cpu.data 28284.955058                       # average overall miss latency
system.cpu.dcache.overall_avg_miss_latency::total 28284.955058                       # average overall miss latency
system.cpu.dcache.blocked_cycles::no_mshrs      5060544                       # number of cycles access was blocked
system.cpu.dcache.blocked_cycles::no_targets         6647                       # number of cycles access was blocked
system.cpu.dcache.blocked::no_mshrs            566913                       # number of cycles access was blocked
system.cpu.dcache.blocked::no_targets              92                       # number of cycles access was blocked
system.cpu.dcache.avg_blocked_cycles::no_mshrs     8.926491                       # average number of cycles each access was blocked
system.cpu.dcache.avg_blocked_cycles::no_targets    72.250000                       # average number of cycles each access was blocked
system.cpu.dcache.writebacks::.writebacks       760820                       # number of writebacks
system.cpu.dcache.writebacks::total            760820                       # number of writebacks
system.cpu.dcache.demand_mshr_hits::.cpu.data      1058632                       # number of demand (read+write) MSHR hits
system.cpu.dcache.demand_mshr_hits::total      1058632                       # number of demand (read+write) MSHR hits
system.cpu.dcache.overall_mshr_hits::.cpu.data      1058632                       # number of overall MSHR hits
system.cpu.dcache.overall_mshr_hits::total      1058632                       # number of overall MSHR hits
system.cpu.dcache.demand_mshr_misses::.cpu.data      1284112                       # number of demand (read+write) MSHR misses
system.cpu.dcache.demand_mshr_misses::total      1284112                       # number of demand (read+write) MSHR misses
system.cpu.dcache.overall_mshr_misses::.cpu.data      1284115                       # number of overall MSHR misses
system.cpu.dcache.overall_mshr_misses::total      1284115                       # number of overall MSHR misses
system.cpu.dcache.demand_mshr_miss_latency::.cpu.data  26461380114                       # number of demand (read+write) MSHR miss cycles
system.cpu.dcache.demand_mshr_miss_latency::total  26461380114                       # number of demand (read+write) MSHR miss cycles
system.cpu.dcache.overall_mshr_miss_latency::.cpu.data  26461702114                       # number of overall MSHR miss cycles
system.cpu.dcache.overall_mshr_miss_latency::total  26461702114                       # number of overall MSHR miss cycles
system.cpu.dcache.demand_mshr_miss_rate::.cpu.data     0.032109                       # mshr miss rate for demand accesses
system.cpu.dcache.demand_mshr_miss_rate::total     0.032109                       # mshr miss rate for demand accesses
system.cpu.dcache.overall_mshr_miss_rate::.cpu.data     0.032109                       # mshr miss rate for overall accesses
system.cpu.dcache.overall_mshr_miss_rate::total     0.032109                       # mshr miss rate for overall accesses
system.cpu.dcache.demand_avg_mshr_miss_latency::.cpu.data 20606.754017                       # average overall mshr miss latency
system.cpu.dcache.demand_avg_mshr_miss_latency::total 20606.754017                       # average overall mshr miss latency
system.cpu.dcache.overall_avg_mshr_miss_latency::.cpu.data 20606.956631                       # average overall mshr miss latency
system.cpu.dcache.overall_avg_mshr_miss_latency::total 20606.956631                       # average overall mshr miss latency
system.cpu.dcache.replacements                1283091                       # number of replacements
system.cpu.dcache.ReadReq_hits::.cpu.data     28224342                       # number of ReadReq hits
system.cpu.dcache.ReadReq_hits::total        28224342                       # number of ReadReq hits
system.cpu.dcache.ReadReq_misses::.cpu.data      1496488                       # number of ReadReq misses
system.cpu.dcache.ReadReq_misses::total       1496488                       # number of ReadReq misses
system.cpu.dcache.ReadReq_miss_latency::.cpu.data  30510925500                       # number of ReadReq miss cycles
system.cpu.dcache.ReadReq_miss_latency::total  30510925500                       # number of ReadReq miss cycles
system.cpu.dcache.ReadReq_accesses::.cpu.data     29720830                       # number of ReadReq accesses(hits+misses)
system.cpu.dcache.ReadReq_accesses::total     29720830                       # number of ReadReq accesses(hits+misses)
system.cpu.dcache.ReadReq_miss_rate::.cpu.data     0.050351                       # miss rate for ReadReq accesses
system.cpu.dcache.ReadReq_miss_rate::total     0.050351                       # miss rate for ReadReq accesses
system.cpu.dcache.ReadReq_avg_miss_latency::.cpu.data 20388.352930                       # average ReadReq miss latency
system.cpu.dcache.ReadReq_avg_miss_latency::total 20388.352930                       # average ReadReq miss latency
system.cpu.dcache.ReadReq_mshr_hits::.cpu.data       619915                       # number of ReadReq MSHR hits
system.cpu.dcache.ReadReq_mshr_hits::total       619915                       # number of ReadReq MSHR hits
system.cpu.dcache.ReadReq_mshr_misses::.cpu.data       876573                       # number of ReadReq MSHR misses
system.cpu.dcache.ReadReq_mshr_misses::total       876573                       # number of ReadReq MSHR misses
system.cpu.dcache.ReadReq_mshr_miss_latency::.cpu.data  14121069500                       # number of ReadReq MSHR miss cycles
system.cpu.dcache.ReadReq_mshr_miss_latency::total  14121069500                       # number of ReadReq MSHR miss cycles
system.cpu.dcache.ReadReq_mshr_miss_rate::.cpu.data     0.029494                       # mshr miss rate for ReadReq accesses
system.cpu.dcache.ReadReq_mshr_miss_rate::total     0.029494                       # mshr miss rate for ReadReq accesses
system.cpu.dcache.ReadReq_avg_mshr_miss_latency::.cpu.data 16109.405035                       # average ReadReq mshr miss latency
system.cpu.dcache.ReadReq_avg_mshr_miss_latency::total 16109.405035                       # average ReadReq mshr miss latency
system.cpu.dcache.WriteReq_hits::.cpu.data      9424833                       # number of WriteReq hits
system.cpu.dcache.WriteReq_hits::total        9424833                       # number of WriteReq hits
system.cpu.dcache.WriteReq_misses::.cpu.data       846249                       # number of WriteReq misses
system.cpu.dcache.WriteReq_misses::total       846249                       # number of WriteReq misses
system.cpu.dcache.WriteReq_miss_latency::.cpu.data  35753345609                       # number of WriteReq miss cycles
system.cpu.dcache.WriteReq_miss_latency::total  35753345609                       # number of WriteReq miss cycles
system.cpu.dcache.WriteReq_accesses::.cpu.data     10271082                       # number of WriteReq accesses(hits+misses)
system.cpu.dcache.WriteReq_accesses::total     10271082                       # number of WriteReq accesses(hits+misses)
system.cpu.dcache.WriteReq_miss_rate::.cpu.data     0.082391                       # miss rate for WriteReq accesses
system.cpu.dcache.WriteReq_miss_rate::total     0.082391                       # miss rate for WriteReq accesses
system.cpu.dcache.WriteReq_avg_miss_latency::.cpu.data 42249.202787                       # average WriteReq miss latency
system.cpu.dcache.WriteReq_avg_miss_latency::total 42249.202787                       # average WriteReq miss latency
system.cpu.dcache.WriteReq_mshr_hits::.cpu.data       438717                       # number of WriteReq MSHR hits
system.cpu.dcache.WriteReq_mshr_hits::total       438717                       # number of WriteReq MSHR hits
system.cpu.dcache.WriteReq_mshr_misses::.cpu.data       407532                       # number of WriteReq MSHR misses
system.cpu.dcache.WriteReq_mshr_misses::total       407532                       # number of WriteReq MSHR misses
system.cpu.dcache.WriteReq_mshr_miss_latency::.cpu.data  12340095116                       # number of WriteReq MSHR miss cycles
system.cpu.dcache.WriteReq_mshr_miss_latency::total  12340095116                       # number of WriteReq MSHR miss cycles
system.cpu.dcache.WriteReq_mshr_miss_rate::.cpu.data     0.039678                       # mshr miss rate for WriteReq accesses
system.cpu.dcache.WriteReq_mshr_miss_rate::total     0.039678                       # mshr miss rate for WriteReq accesses
system.cpu.dcache.WriteReq_avg_mshr_miss_latency::.cpu.data 30280.064181                       # average WriteReq mshr miss latency
system.cpu.dcache.WriteReq_avg_mshr_miss_latency::total 30280.064181                       # average WriteReq mshr miss latency
system.cpu.dcache.SoftPFReq_hits::.cpu.data          119                       # number of SoftPFReq hits
system.cpu.dcache.SoftPFReq_hits::total           119                       # number of SoftPFReq hits
system.cpu.dcache.SoftPFReq_misses::.cpu.data            3                       # number of SoftPFReq misses
system.cpu.dcache.SoftPFReq_misses::total            3                       # number of SoftPFReq misses
system.cpu.dcache.SoftPFReq_accesses::.cpu.data          122                       # number of SoftPFReq accesses(hits+misses)
system.cpu.dcache.SoftPFReq_accesses::total          122                       # number of SoftPFReq accesses(hits+misses)
system.cpu.dcache.SoftPFReq_miss_rate::.cpu.data     0.024590                       # miss rate for SoftPFReq accesses
system.cpu.dcache.SoftPFReq_miss_rate::total     0.024590                       # miss rate for SoftPFReq accesses
system.cpu.dcache.SoftPFReq_mshr_misses::.cpu.data            3                       # number of SoftPFReq MSHR misses
system.cpu.dcache.SoftPFReq_mshr_misses::total            3                       # number of SoftPFReq MSHR misses
system.cpu.dcache.SoftPFReq_mshr_miss_latency::.cpu.data       322000                       # number of SoftPFReq MSHR miss cycles
system.cpu.dcache.SoftPFReq_mshr_miss_latency::total       322000                       # number of SoftPFReq MSHR miss cycles
system.cpu.dcache.SoftPFReq_mshr_miss_rate::.cpu.data     0.024590                       # mshr miss rate for SoftPFReq accesses
system.cpu.dcache.SoftPFReq_mshr_miss_rate::total     0.024590                       # mshr miss rate for SoftPFReq accesses
system.cpu.dcache.SoftPFReq_avg_mshr_miss_latency::.cpu.data 107333.333333                       # average SoftPFReq mshr miss latency
system.cpu.dcache.SoftPFReq_avg_mshr_miss_latency::total 107333.333333                       # average SoftPFReq mshr miss latency
system.cpu.dcache.WriteLineReq_misses::.cpu.data            7                       # number of WriteLineReq misses
system.cpu.dcache.WriteLineReq_misses::total            7                       # number of WriteLineReq misses
system.cpu.dcache.WriteLineReq_miss_latency::.cpu.data       222498                       # number of WriteLineReq miss cycles
system.cpu.dcache.WriteLineReq_miss_latency::total       222498                       # number of WriteLineReq miss cycles
system.cpu.dcache.WriteLineReq_accesses::.cpu.data            7                       # number of WriteLineReq accesses(hits+misses)
system.cpu.dcache.WriteLineReq_accesses::total            7                       # number of WriteLineReq accesses(hits+misses)
system.cpu.dcache.WriteLineReq_miss_rate::.cpu.data            1                       # miss rate for WriteLineReq accesses
system.cpu.dcache.WriteLineReq_miss_rate::total            1                       # miss rate for WriteLineReq accesses
system.cpu.dcache.WriteLineReq_avg_miss_latency::.cpu.data 31785.428571                       # average WriteLineReq miss latency
system.cpu.dcache.WriteLineReq_avg_miss_latency::total 31785.428571                       # average WriteLineReq miss latency
system.cpu.dcache.WriteLineReq_mshr_misses::.cpu.data            7                       # number of WriteLineReq MSHR misses
system.cpu.dcache.WriteLineReq_mshr_misses::total            7                       # number of WriteLineReq MSHR misses
system.cpu.dcache.WriteLineReq_mshr_miss_latency::.cpu.data       215498                       # number of WriteLineReq MSHR miss cycles
system.cpu.dcache.WriteLineReq_mshr_miss_latency::total       215498                       # number of WriteLineReq MSHR miss cycles
system.cpu.dcache.WriteLineReq_mshr_miss_rate::.cpu.data            1                       # mshr miss rate for WriteLineReq accesses
system.cpu.dcache.WriteLineReq_mshr_miss_rate::total            1                       # mshr miss rate for WriteLineReq accesses
system.cpu.dcache.WriteLineReq_avg_mshr_miss_latency::.cpu.data 30785.428571                       # average WriteLineReq mshr miss latency
system.cpu.dcache.WriteLineReq_avg_mshr_miss_latency::total 30785.428571                       # average WriteLineReq mshr miss latency
system.cpu.dcache.LoadLockedReq_hits::.cpu.data           44                       # number of LoadLockedReq hits
system.cpu.dcache.LoadLockedReq_hits::total           44                       # number of LoadLockedReq hits
system.cpu.dcache.LoadLockedReq_misses::.cpu.data            2                       # number of LoadLockedReq misses
system.cpu.dcache.LoadLockedReq_misses::total            2                       # number of LoadLockedReq misses
system.cpu.dcache.LoadLockedReq_miss_latency::.cpu.data        85000                       # number of LoadLockedReq miss cycles
system.cpu.dcache.LoadLockedReq_miss_latency::total        85000                       # number of LoadLockedReq miss cycles
system.cpu.dcache.LoadLockedReq_accesses::.cpu.data           46                       # number of LoadLockedReq accesses(hits+misses)
system.cpu.dcache.LoadLockedReq_accesses::total           46                       # number of LoadLockedReq accesses(hits+misses)
system.cpu.dcache.LoadLockedReq_miss_rate::.cpu.data     0.043478                       # miss rate for LoadLockedReq accesses
system.cpu.dcache.LoadLockedReq_miss_rate::total     0.043478                       # miss rate for LoadLockedReq accesses
system.cpu.dcache.LoadLockedReq_avg_miss_latency::.cpu.data        42500                       # average LoadLockedReq miss latency
system.cpu.dcache.LoadLockedReq_avg_miss_latency::total        42500                       # average LoadLockedReq miss latency
system.cpu.dcache.LoadLockedReq_mshr_hits::.cpu.data            2                       # number of LoadLockedReq MSHR hits
system.cpu.dcache.LoadLockedReq_mshr_hits::total            2                       # number of LoadLockedReq MSHR hits
system.cpu.dcache.StoreCondReq_hits::.cpu.data           36                       # number of StoreCondReq hits
system.cpu.dcache.StoreCondReq_hits::total           36                       # number of StoreCondReq hits
system.cpu.dcache.StoreCondReq_accesses::.cpu.data           36                       # number of StoreCondReq accesses(hits+misses)
system.cpu.dcache.StoreCondReq_accesses::total           36                       # number of StoreCondReq accesses(hits+misses)
system.cpu.dcache.power_state.pwrStateResidencyTicks::UNDEFINED  36606919000                       # Cumulative time (in ticks) in various power states
system.cpu.dcache.tags.tagsinuse          1020.970894                       # Cycle average of tags in use
system.cpu.dcache.tags.total_refs            38933489                       # Total number of references to valid blocks.
system.cpu.dcache.tags.sampled_refs           1284115                       # Sample count of references to valid blocks.
system.cpu.dcache.tags.avg_refs             30.319316                       # Average number of references to valid blocks.
system.cpu.dcache.tags.warmup_cycle            176500                       # Cycle when the warmup percentage was hit.
system.cpu.dcache.tags.occ_blocks::.cpu.data  1020.970894                       # Average occupied blocks per requestor
system.cpu.dcache.tags.occ_percent::.cpu.data     0.997042                       # Average percentage of cache occupancy
system.cpu.dcache.tags.occ_percent::total     0.997042                       # Average percentage of cache occupancy
system.cpu.dcache.tags.occ_task_id_blocks::1024         1024                       # Occupied blocks per task id
system.cpu.dcache.tags.age_task_id_blocks_1024::0           96                       # Occupied blocks per task id
system.cpu.dcache.tags.age_task_id_blocks_1024::1          714                       # Occupied blocks per task id
system.cpu.dcache.tags.age_task_id_blocks_1024::2          214                       # Occupied blocks per task id
system.cpu.dcache.tags.occ_task_id_percent::1024            1                       # Percentage of cache occupancy per task id
system.cpu.dcache.tags.tag_accesses          81268361                       # Number of tag accesses
system.cpu.dcache.tags.data_accesses         81268361                       # Number of data accesses
system.cpu.dcache.tags.power_state.pwrStateResidencyTicks::UNDEFINED  36606919000                       # Cumulative time (in ticks) in various power states
system.cpu.power_state.pwrStateResidencyTicks::ON  36606919000                       # Cumulative time (in ticks) in various power states

---------- End Simulation Statistics   ----------
