
---------- Begin Simulation Statistics ----------
final_tick                                82760532500                       # Number of ticks from beginning of simulation (restored from checkpoints and never reset)
host_inst_rate                                 253377                       # Simulator instruction rate (inst/s)
host_mem_usage                                 847648                       # Number of bytes of host memory used
host_op_rate                                   257238                       # Simulator op (including micro ops) rate (op/s)
host_seconds                                   394.67                       # Real time elapsed on the host
host_tick_rate                              209696382                       # Simulator tick rate (ticks/s)
sim_freq                                 1000000000000                       # Frequency of simulated ticks
sim_insts                                   100000000                       # Number of instructions simulated
sim_ops                                     101523851                       # Number of ops (including micro ops) simulated
sim_seconds                                  0.082761                       # Number of seconds simulated
sim_ticks                                 82760532500                       # Number of ticks simulated
system.cpu.branchPred.BTBCorrect                    0                       # Number of correct BTB predictions (this stat may not work properly.
system.cpu.branchPred.BTBHitPct             99.991197                       # BTB Hit Percentage
system.cpu.branchPred.BTBHits                12426755                       # Number of BTB hits
system.cpu.branchPred.BTBLookups             12427849                       # Number of BTB lookups
system.cpu.branchPred.RASInCorrect                  6                       # Number of incorrect RAS predictions.
system.cpu.branchPred.condIncorrect             59472                       # Number of conditional branches incorrect
system.cpu.branchPred.condPredicted          19235733                       # Number of conditional branches predicted
system.cpu.branchPred.indirectHits                  9                       # Number of indirect target hits.
system.cpu.branchPred.indirectLookups             107                       # Number of indirect predictor lookups.
system.cpu.branchPred.indirectMisses               98                       # Number of indirect misses.
system.cpu.branchPred.lookups                19482181                       # Number of BP lookups
system.cpu.branchPred.usedRAS                  114245                       # Number of times the RAS was used to get a target.
system.cpu.branchPredindirectMispredicted           61                       # Number of mispredicted indirect branches.
system.cpu.committedInsts                   100000000                       # Number of instructions committed
system.cpu.committedOps                     101523851                       # Number of ops (including micro ops) committed
system.cpu.cpi                               1.655211                       # CPI: cycles per instruction
system.cpu.discardedOps                         29150                       # Number of ops (including micro ops) which were discarded before commit
system.cpu.dtb.accesses                             0                       # DTB accesses
system.cpu.dtb.align_faults                         0                       # Number of TLB faults due to alignment restrictions
system.cpu.dtb.domain_faults                        0                       # Number of TLB faults due to domain restrictions
system.cpu.dtb.flush_entries                        0                       # Number of entries that have been flushed from TLB
system.cpu.dtb.flush_tlb                            0                       # Number of times complete TLB was flushed
system.cpu.dtb.flush_tlb_asid                       0                       # Number of times TLB was flushed by ASID
system.cpu.dtb.flush_tlb_mva                        0                       # Number of times TLB was flushed by MVA
system.cpu.dtb.flush_tlb_mva_asid                   0                       # Number of times TLB was flushed by MVA & ASID
system.cpu.dtb.hits                                 0                       # DTB hits
system.cpu.dtb.inst_accesses                        0                       # ITB inst accesses
system.cpu.dtb.inst_hits                            0                       # ITB inst hits
system.cpu.dtb.inst_misses                          0                       # ITB inst misses
system.cpu.dtb.misses                               0                       # DTB misses
system.cpu.dtb.perms_faults                         0                       # Number of TLB faults due to permissions restrictions
system.cpu.dtb.prefetch_faults                      0                       # Number of TLB faults due to prefetch
system.cpu.dtb.read_accesses                        0                       # DTB read accesses
system.cpu.dtb.read_hits                            0                       # DTB read hits
system.cpu.dtb.read_misses                          0                       # DTB read misses
system.cpu.dtb.stage2_mmu.stage2_tlb.accesses            0                       # DTB accesses
system.cpu.dtb.stage2_mmu.stage2_tlb.align_faults            0                       # Number of TLB faults due to alignment restrictions
system.cpu.dtb.stage2_mmu.stage2_tlb.domain_faults            0                       # Number of TLB faults due to domain restrictions
system.cpu.dtb.stage2_mmu.stage2_tlb.flush_entries            0                       # Number of entries that have been flushed from TLB
system.cpu.dtb.stage2_mmu.stage2_tlb.flush_tlb            0                       # Number of times complete TLB was flushed
system.cpu.dtb.stage2_mmu.stage2_tlb.flush_tlb_asid            0                       # Number of times TLB was flushed by ASID
system.cpu.dtb.stage2_mmu.stage2_tlb.flush_tlb_mva            0                       # Number of times TLB was flushed by MVA
system.cpu.dtb.stage2_mmu.stage2_tlb.flush_tlb_mva_asid            0                       # Number of times TLB was flushed by MVA & ASID
system.cpu.dtb.stage2_mmu.stage2_tlb.hits            0                       # DTB hits
system.cpu.dtb.stage2_mmu.stage2_tlb.inst_accesses            0                       # ITB inst accesses
system.cpu.dtb.stage2_mmu.stage2_tlb.inst_hits            0                       # ITB inst hits
system.cpu.dtb.stage2_mmu.stage2_tlb.inst_misses            0                       # ITB inst misses
system.cpu.dtb.stage2_mmu.stage2_tlb.misses            0                       # DTB misses
system.cpu.dtb.stage2_mmu.stage2_tlb.perms_faults            0                       # Number of TLB faults due to permissions restrictions
system.cpu.dtb.stage2_mmu.stage2_tlb.prefetch_faults            0                       # Number of TLB faults due to prefetch
system.cpu.dtb.stage2_mmu.stage2_tlb.read_accesses            0                       # DTB read accesses
system.cpu.dtb.stage2_mmu.stage2_tlb.read_hits            0                       # DTB read hits
system.cpu.dtb.stage2_mmu.stage2_tlb.read_misses            0                       # DTB read misses
system.cpu.dtb.stage2_mmu.stage2_tlb.walker.walkRequestOrigin_Requested::Data            0                       # Table walker requests started/completed, data/inst
system.cpu.dtb.stage2_mmu.stage2_tlb.walker.walkRequestOrigin_Requested::Inst            0                       # Table walker requests started/completed, data/inst
system.cpu.dtb.stage2_mmu.stage2_tlb.walker.walkRequestOrigin_Requested::total            0                       # Table walker requests started/completed, data/inst
system.cpu.dtb.stage2_mmu.stage2_tlb.walker.walkRequestOrigin_Completed::Data            0                       # Table walker requests started/completed, data/inst
system.cpu.dtb.stage2_mmu.stage2_tlb.walker.walkRequestOrigin_Completed::Inst            0                       # Table walker requests started/completed, data/inst
system.cpu.dtb.stage2_mmu.stage2_tlb.walker.walkRequestOrigin_Completed::total            0                       # Table walker requests started/completed, data/inst
system.cpu.dtb.stage2_mmu.stage2_tlb.walker.walkRequestOrigin::total            0                       # Table walker requests started/completed, data/inst
system.cpu.dtb.stage2_mmu.stage2_tlb.walker.walks            0                       # Table walker walks requested
system.cpu.dtb.stage2_mmu.stage2_tlb.write_accesses            0                       # DTB write accesses
system.cpu.dtb.stage2_mmu.stage2_tlb.write_hits            0                       # DTB write hits
system.cpu.dtb.stage2_mmu.stage2_tlb.write_misses            0                       # DTB write misses
system.cpu.dtb.walker.walkRequestOrigin_Requested::Data            0                       # Table walker requests started/completed, data/inst
system.cpu.dtb.walker.walkRequestOrigin_Requested::Inst            0                       # Table walker requests started/completed, data/inst
system.cpu.dtb.walker.walkRequestOrigin_Requested::total            0                       # Table walker requests started/completed, data/inst
system.cpu.dtb.walker.walkRequestOrigin_Completed::Data            0                       # Table walker requests started/completed, data/inst
system.cpu.dtb.walker.walkRequestOrigin_Completed::Inst            0                       # Table walker requests started/completed, data/inst
system.cpu.dtb.walker.walkRequestOrigin_Completed::total            0                       # Table walker requests started/completed, data/inst
system.cpu.dtb.walker.walkRequestOrigin::total            0                       # Table walker requests started/completed, data/inst
system.cpu.dtb.walker.walks                         0                       # Table walker walks requested
system.cpu.dtb.write_accesses                       0                       # DTB write accesses
system.cpu.dtb.write_hits                           0                       # DTB write hits
system.cpu.dtb.write_misses                         0                       # DTB write misses
system.cpu.fetch2.amo_instructions                  0                       # Number of memory atomic instructions successfully decoded
system.cpu.fetch2.fp_instructions                   0                       # Number of floating point instructions successfully decoded
system.cpu.fetch2.int_instructions           49856190                       # Number of integer instructions successfully decoded
system.cpu.fetch2.load_instructions          25740392                       # Number of memory load instructions successfully decoded
system.cpu.fetch2.store_instructions          4502713                       # Number of memory store instructions successfully decoded
system.cpu.fetch2.vec_instructions              76041                       # Number of SIMD instructions successfully decoded
system.cpu.idleCycles                         1223320                       # Total number of cycles that the object has spent stopped
system.cpu.ipc                               0.604153                       # IPC: instructions per cycle
system.cpu.itb.accesses                             0                       # DTB accesses
system.cpu.itb.align_faults                         0                       # Number of TLB faults due to alignment restrictions
system.cpu.itb.domain_faults                        0                       # Number of TLB faults due to domain restrictions
system.cpu.itb.flush_entries                        0                       # Number of entries that have been flushed from TLB
system.cpu.itb.flush_tlb                            0                       # Number of times complete TLB was flushed
system.cpu.itb.flush_tlb_asid                       0                       # Number of times TLB was flushed by ASID
system.cpu.itb.flush_tlb_mva                        0                       # Number of times TLB was flushed by MVA
system.cpu.itb.flush_tlb_mva_asid                   0                       # Number of times TLB was flushed by MVA & ASID
system.cpu.itb.hits                                 0                       # DTB hits
system.cpu.itb.inst_accesses                        0                       # ITB inst accesses
system.cpu.itb.inst_hits                            0                       # ITB inst hits
system.cpu.itb.inst_misses                          0                       # ITB inst misses
system.cpu.itb.misses                               0                       # DTB misses
system.cpu.itb.perms_faults                         0                       # Number of TLB faults due to permissions restrictions
system.cpu.itb.prefetch_faults                      0                       # Number of TLB faults due to prefetch
system.cpu.itb.read_accesses                        0                       # DTB read accesses
system.cpu.itb.read_hits                            0                       # DTB read hits
system.cpu.itb.read_misses                          0                       # DTB read misses
system.cpu.itb.stage2_mmu.stage2_tlb.accesses            0                       # DTB accesses
system.cpu.itb.stage2_mmu.stage2_tlb.align_faults            0                       # Number of TLB faults due to alignment restrictions
system.cpu.itb.stage2_mmu.stage2_tlb.domain_faults            0                       # Number of TLB faults due to domain restrictions
system.cpu.itb.stage2_mmu.stage2_tlb.flush_entries            0                       # Number of entries that have been flushed from TLB
system.cpu.itb.stage2_mmu.stage2_tlb.flush_tlb            0                       # Number of times complete TLB was flushed
system.cpu.itb.stage2_mmu.stage2_tlb.flush_tlb_asid            0                       # Number of times TLB was flushed by ASID
system.cpu.itb.stage2_mmu.stage2_tlb.flush_tlb_mva            0                       # Number of times TLB was flushed by MVA
system.cpu.itb.stage2_mmu.stage2_tlb.flush_tlb_mva_asid            0                       # Number of times TLB was flushed by MVA & ASID
system.cpu.itb.stage2_mmu.stage2_tlb.hits            0                       # DTB hits
system.cpu.itb.stage2_mmu.stage2_tlb.inst_accesses            0                       # ITB inst accesses
system.cpu.itb.stage2_mmu.stage2_tlb.inst_hits            0                       # ITB inst hits
system.cpu.itb.stage2_mmu.stage2_tlb.inst_misses            0                       # ITB inst misses
system.cpu.itb.stage2_mmu.stage2_tlb.misses            0                       # DTB misses
system.cpu.itb.stage2_mmu.stage2_tlb.perms_faults            0                       # Number of TLB faults due to permissions restrictions
system.cpu.itb.stage2_mmu.stage2_tlb.prefetch_faults            0                       # Number of TLB faults due to prefetch
system.cpu.itb.stage2_mmu.stage2_tlb.read_accesses            0                       # DTB read accesses
system.cpu.itb.stage2_mmu.stage2_tlb.read_hits            0                       # DTB read hits
system.cpu.itb.stage2_mmu.stage2_tlb.read_misses            0                       # DTB read misses
system.cpu.itb.stage2_mmu.stage2_tlb.walker.walkRequestOrigin_Requested::Data            0                       # Table walker requests started/completed, data/inst
system.cpu.itb.stage2_mmu.stage2_tlb.walker.walkRequestOrigin_Requested::Inst            0                       # Table walker requests started/completed, data/inst
system.cpu.itb.stage2_mmu.stage2_tlb.walker.walkRequestOrigin_Requested::total            0                       # Table walker requests started/completed, data/inst
system.cpu.itb.stage2_mmu.stage2_tlb.walker.walkRequestOrigin_Completed::Data            0                       # Table walker requests started/completed, data/inst
system.cpu.itb.stage2_mmu.stage2_tlb.walker.walkRequestOrigin_Completed::Inst            0                       # Table walker requests started/completed, data/inst
system.cpu.itb.stage2_mmu.stage2_tlb.walker.walkRequestOrigin_Completed::total            0                       # Table walker requests started/completed, data/inst
system.cpu.itb.stage2_mmu.stage2_tlb.walker.walkRequestOrigin::total            0                       # Table walker requests started/completed, data/inst
system.cpu.itb.stage2_mmu.stage2_tlb.walker.walks            0                       # Table walker walks requested
system.cpu.itb.stage2_mmu.stage2_tlb.write_accesses            0                       # DTB write accesses
system.cpu.itb.stage2_mmu.stage2_tlb.write_hits            0                       # DTB write hits
system.cpu.itb.stage2_mmu.stage2_tlb.write_misses            0                       # DTB write misses
system.cpu.itb.walker.walkRequestOrigin_Requested::Data            0                       # Table walker requests started/completed, data/inst
system.cpu.itb.walker.walkRequestOrigin_Requested::Inst            0                       # Table walker requests started/completed, data/inst
system.cpu.itb.walker.walkRequestOrigin_Requested::total            0                       # Table walker requests started/completed, data/inst
system.cpu.itb.walker.walkRequestOrigin_Completed::Data            0                       # Table walker requests started/completed, data/inst
system.cpu.itb.walker.walkRequestOrigin_Completed::Inst            0                       # Table walker requests started/completed, data/inst
system.cpu.itb.walker.walkRequestOrigin_Completed::total            0                       # Table walker requests started/completed, data/inst
system.cpu.itb.walker.walkRequestOrigin::total            0                       # Table walker requests started/completed, data/inst
system.cpu.itb.walker.walks                         0                       # Table walker walks requested
system.cpu.itb.write_accesses                       0                       # DTB write accesses
system.cpu.itb.write_hits                           0                       # DTB write hits
system.cpu.itb.write_misses                         0                       # DTB write misses
system.cpu.numCycles                        165521065                       # number of cpu cycles simulated
system.cpu.numFetchSuspends                         0                       # Number of times Execute suspended instruction fetching
system.cpu.numWorkItemsCompleted                    0                       # number of work items this cpu completed
system.cpu.numWorkItemsStarted                      0                       # number of work items this cpu started
system.cpu.op_class_0::No_OpClass                  10      0.00%      0.00% # Class of committed instruction
system.cpu.op_class_0::IntAlu                69620021     68.58%     68.58% # Class of committed instruction
system.cpu.op_class_0::IntMult                   6378      0.01%     68.58% # Class of committed instruction
system.cpu.op_class_0::IntDiv                     136      0.00%     68.58% # Class of committed instruction
system.cpu.op_class_0::FloatAdd                  4094      0.00%     68.59% # Class of committed instruction
system.cpu.op_class_0::FloatCmp                 16376      0.02%     68.60% # Class of committed instruction
system.cpu.op_class_0::FloatCvt                  6163      0.01%     68.61% # Class of committed instruction
system.cpu.op_class_0::FloatMult                22517      0.02%     68.63% # Class of committed instruction
system.cpu.op_class_0::FloatMultAcc             22517      0.02%     68.65% # Class of committed instruction
system.cpu.op_class_0::FloatDiv                    22      0.00%     68.65% # Class of committed instruction
system.cpu.op_class_0::FloatMisc                 2070      0.00%     68.65% # Class of committed instruction
system.cpu.op_class_0::FloatSqrt                    0      0.00%     68.65% # Class of committed instruction
system.cpu.op_class_0::SimdAdd                     32      0.00%     68.65% # Class of committed instruction
system.cpu.op_class_0::SimdAddAcc                   0      0.00%     68.65% # Class of committed instruction
system.cpu.op_class_0::SimdAlu                     37      0.00%     68.65% # Class of committed instruction
system.cpu.op_class_0::SimdCmp                     40      0.00%     68.65% # Class of committed instruction
system.cpu.op_class_0::SimdCvt                      0      0.00%     68.65% # Class of committed instruction
system.cpu.op_class_0::SimdMisc                  2082      0.00%     68.66% # Class of committed instruction
system.cpu.op_class_0::SimdMult                     0      0.00%     68.66% # Class of committed instruction
system.cpu.op_class_0::SimdMultAcc                  0      0.00%     68.66% # Class of committed instruction
system.cpu.op_class_0::SimdShift                    0      0.00%     68.66% # Class of committed instruction
system.cpu.op_class_0::SimdShiftAcc                 0      0.00%     68.66% # Class of committed instruction
system.cpu.op_class_0::SimdDiv                      0      0.00%     68.66% # Class of committed instruction
system.cpu.op_class_0::SimdSqrt                     0      0.00%     68.66% # Class of committed instruction
system.cpu.op_class_0::SimdFloatAdd                 0      0.00%     68.66% # Class of committed instruction
system.cpu.op_class_0::SimdFloatAlu                 0      0.00%     68.66% # Class of committed instruction
system.cpu.op_class_0::SimdFloatCmp                 0      0.00%     68.66% # Class of committed instruction
system.cpu.op_class_0::SimdFloatCvt                 0      0.00%     68.66% # Class of committed instruction
system.cpu.op_class_0::SimdFloatDiv                 0      0.00%     68.66% # Class of committed instruction
system.cpu.op_class_0::SimdFloatMisc                0      0.00%     68.66% # Class of committed instruction
system.cpu.op_class_0::SimdFloatMult                0      0.00%     68.66% # Class of committed instruction
system.cpu.op_class_0::SimdFloatMultAcc             0      0.00%     68.66% # Class of committed instruction
system.cpu.op_class_0::SimdFloatSqrt                0      0.00%     68.66% # Class of committed instruction
system.cpu.op_class_0::SimdReduceAdd                0      0.00%     68.66% # Class of committed instruction
system.cpu.op_class_0::SimdReduceAlu                0      0.00%     68.66% # Class of committed instruction
system.cpu.op_class_0::SimdReduceCmp                0      0.00%     68.66% # Class of committed instruction
system.cpu.op_class_0::SimdFloatReduceAdd            0      0.00%     68.66% # Class of committed instruction
system.cpu.op_class_0::SimdFloatReduceCmp            0      0.00%     68.66% # Class of committed instruction
system.cpu.op_class_0::SimdAes                      0      0.00%     68.66% # Class of committed instruction
system.cpu.op_class_0::SimdAesMix                   0      0.00%     68.66% # Class of committed instruction
system.cpu.op_class_0::SimdSha1Hash                 0      0.00%     68.66% # Class of committed instruction
system.cpu.op_class_0::SimdSha1Hash2                0      0.00%     68.66% # Class of committed instruction
system.cpu.op_class_0::SimdSha256Hash               0      0.00%     68.66% # Class of committed instruction
system.cpu.op_class_0::SimdSha256Hash2              0      0.00%     68.66% # Class of committed instruction
system.cpu.op_class_0::SimdShaSigma2                0      0.00%     68.66% # Class of committed instruction
system.cpu.op_class_0::SimdShaSigma3                0      0.00%     68.66% # Class of committed instruction
system.cpu.op_class_0::SimdPredAlu                  0      0.00%     68.66% # Class of committed instruction
system.cpu.op_class_0::MemRead               25952696     25.56%     94.22% # Class of committed instruction
system.cpu.op_class_0::MemWrite               5868660      5.78%    100.00% # Class of committed instruction
system.cpu.op_class_0::FloatMemRead                 0      0.00%    100.00% # Class of committed instruction
system.cpu.op_class_0::FloatMemWrite                0      0.00%    100.00% # Class of committed instruction
system.cpu.op_class_0::IprAccess                    0      0.00%    100.00% # Class of committed instruction
system.cpu.op_class_0::InstPrefetch                 0      0.00%    100.00% # Class of committed instruction
system.cpu.op_class_0::total                101523851                       # Class of committed instruction
system.cpu.tickCycles                       164297745                       # Number of cycles that the object actually ticked
system.cpu.workload.numSyscalls                     7                       # Number of system calls
system.membus.snoop_filter.hit_multi_requests            0                       # Number of requests hitting in the snoop filter with multiple (>1) holders of the requested data.
system.membus.snoop_filter.hit_multi_snoops            0                       # Number of snoops hitting in the snoop filter with multiple (>1) holders of the requested data.
system.membus.snoop_filter.hit_single_requests            0                       # Number of requests hitting in the snoop filter with a single holder of the requested data.
system.membus.snoop_filter.hit_single_snoops            0                       # Number of snoops hitting in the snoop filter with a single holder of the requested data.
system.membus.snoop_filter.tot_requests          2035                       # Total number of requests made to the snoop filter.
system.membus.snoop_filter.tot_snoops               0                       # Total number of snoops made to the snoop filter.
system.tol2bus.snoop_filter.hit_multi_requests            1                       # Number of requests hitting in the snoop filter with multiple (>1) holders of the requested data.
system.tol2bus.snoop_filter.hit_multi_snoops            0                       # Number of snoops hitting in the snoop filter with multiple (>1) holders of the requested data.
system.tol2bus.snoop_filter.hit_single_requests        32218                       # Number of requests hitting in the snoop filter with a single holder of the requested data.
system.tol2bus.snoop_filter.hit_single_snoops            0                       # Number of snoops hitting in the snoop filter with a single holder of the requested data.
system.tol2bus.snoop_filter.tot_requests        65712                       # Total number of requests made to the snoop filter.
system.tol2bus.snoop_filter.tot_snoops              0                       # Total number of snoops made to the snoop filter.
system.membus.trans_dist::ReadResp                789                       # Transaction distribution
system.membus.trans_dist::ReadExReq               701                       # Transaction distribution
system.membus.trans_dist::ReadExResp              701                       # Transaction distribution
system.membus.trans_dist::ReadSharedReq           789                       # Transaction distribution
system.membus.trans_dist::InvalidateReq           545                       # Transaction distribution
system.membus.pkt_count_system.l2.mem_side::system.mem_ctrls.port         3525                       # Packet count per connected master and slave (bytes)
system.membus.pkt_count::total                   3525                       # Packet count per connected master and slave (bytes)
system.membus.pkt_size_system.l2.mem_side::system.mem_ctrls.port        95360                       # Cumulative packet size per connected master and slave (bytes)
system.membus.pkt_size::total                   95360                       # Cumulative packet size per connected master and slave (bytes)
system.membus.snoops                                0                       # Total snoops (count)
system.membus.snoopTraffic                          0                       # Total snoop traffic (bytes)
system.membus.snoop_fanout::samples              2035                       # Request fanout histogram
system.membus.snoop_fanout::mean                    0                       # Request fanout histogram
system.membus.snoop_fanout::stdev                   0                       # Request fanout histogram
system.membus.snoop_fanout::underflows              0      0.00%      0.00% # Request fanout histogram
system.membus.snoop_fanout::0                    2035    100.00%    100.00% # Request fanout histogram
system.membus.snoop_fanout::1                       0      0.00%    100.00% # Request fanout histogram
system.membus.snoop_fanout::overflows               0      0.00%    100.00% # Request fanout histogram
system.membus.snoop_fanout::min_value               0                       # Request fanout histogram
system.membus.snoop_fanout::max_value               0                       # Request fanout histogram
system.membus.snoop_fanout::total                2035                       # Request fanout histogram
system.membus.reqLayer0.occupancy             2573000                       # Layer occupancy (ticks)
system.membus.reqLayer0.utilization               0.0                       # Layer utilization (%)
system.membus.respLayer1.occupancy            7908250                       # Layer occupancy (ticks)
system.membus.respLayer1.utilization              0.0                       # Layer utilization (%)
system.membus.power_state.pwrStateResidencyTicks::UNDEFINED  82760532500                       # Cumulative time (in ticks) in various power states
system.tol2bus.trans_dist::ReadResp             32039                       # Transaction distribution
system.tol2bus.trans_dist::WritebackDirty        31427                       # Transaction distribution
system.tol2bus.trans_dist::WritebackClean          709                       # Transaction distribution
system.tol2bus.trans_dist::CleanEvict              82                       # Transaction distribution
system.tol2bus.trans_dist::ReadExReq              910                       # Transaction distribution
system.tol2bus.trans_dist::ReadExResp             910                       # Transaction distribution
system.tol2bus.trans_dist::ReadCleanReq           965                       # Transaction distribution
system.tol2bus.trans_dist::ReadSharedReq        31074                       # Transaction distribution
system.tol2bus.trans_dist::InvalidateReq          545                       # Transaction distribution
system.tol2bus.trans_dist::InvalidateResp          545                       # Transaction distribution
system.tol2bus.pkt_count_system.cpu.icache.mem_side::system.l2.cpu_side         2639                       # Packet count per connected master and slave (bytes)
system.tol2bus.pkt_count_system.cpu.dcache.mem_side::system.l2.cpu_side        96567                       # Packet count per connected master and slave (bytes)
system.tol2bus.pkt_count::total                 99206                       # Packet count per connected master and slave (bytes)
system.tol2bus.pkt_size_system.cpu.icache.mem_side::system.l2.cpu_side       107136                       # Cumulative packet size per connected master and slave (bytes)
system.tol2bus.pkt_size_system.cpu.dcache.mem_side::system.l2.cpu_side      4058304                       # Cumulative packet size per connected master and slave (bytes)
system.tol2bus.pkt_size::total                4165440                       # Cumulative packet size per connected master and slave (bytes)
system.tol2bus.snoops                               0                       # Total snoops (count)
system.tol2bus.snoopTraffic                         0                       # Total snoop traffic (bytes)
system.tol2bus.snoop_fanout::samples            33494                       # Request fanout histogram
system.tol2bus.snoop_fanout::mean            0.000030                       # Request fanout histogram
system.tol2bus.snoop_fanout::stdev           0.005464                       # Request fanout histogram
system.tol2bus.snoop_fanout::underflows             0      0.00%      0.00% # Request fanout histogram
system.tol2bus.snoop_fanout::0                  33493    100.00%    100.00% # Request fanout histogram
system.tol2bus.snoop_fanout::1                      1      0.00%    100.00% # Request fanout histogram
system.tol2bus.snoop_fanout::2                      0      0.00%    100.00% # Request fanout histogram
system.tol2bus.snoop_fanout::overflows              0      0.00%    100.00% # Request fanout histogram
system.tol2bus.snoop_fanout::min_value              0                       # Request fanout histogram
system.tol2bus.snoop_fanout::max_value              1                       # Request fanout histogram
system.tol2bus.snoop_fanout::total              33494                       # Request fanout histogram
system.tol2bus.reqLayer0.occupancy           64992000                       # Layer occupancy (ticks)
system.tol2bus.reqLayer0.utilization              0.1                       # Layer utilization (%)
system.tol2bus.respLayer1.occupancy          48248500                       # Layer occupancy (ticks)
system.tol2bus.respLayer1.utilization             0.1                       # Layer utilization (%)
system.tol2bus.respLayer0.occupancy           1447500                       # Layer occupancy (ticks)
system.tol2bus.respLayer0.utilization             0.0                       # Layer utilization (%)
system.tol2bus.power_state.pwrStateResidencyTicks::UNDEFINED  82760532500                       # Cumulative time (in ticks) in various power states
system.voltage_domain.voltage                       1                       # Voltage in Volts
system.clk_domain.clock                          1000                       # Clock period in ticks
system.l2.demand_hits::.cpu.inst                  272                       # number of demand (read+write) hits
system.l2.demand_hits::.cpu.data                31187                       # number of demand (read+write) hits
system.l2.demand_hits::total                    31459                       # number of demand (read+write) hits
system.l2.overall_hits::.cpu.inst                 272                       # number of overall hits
system.l2.overall_hits::.cpu.data               31187                       # number of overall hits
system.l2.overall_hits::total                   31459                       # number of overall hits
system.l2.demand_misses::.cpu.inst                693                       # number of demand (read+write) misses
system.l2.demand_misses::.cpu.data                797                       # number of demand (read+write) misses
system.l2.demand_misses::total                   1490                       # number of demand (read+write) misses
system.l2.overall_misses::.cpu.inst               693                       # number of overall misses
system.l2.overall_misses::.cpu.data               797                       # number of overall misses
system.l2.overall_misses::total                  1490                       # number of overall misses
system.l2.demand_miss_latency::.cpu.inst     53181000                       # number of demand (read+write) miss cycles
system.l2.demand_miss_latency::.cpu.data     60940500                       # number of demand (read+write) miss cycles
system.l2.demand_miss_latency::total        114121500                       # number of demand (read+write) miss cycles
system.l2.overall_miss_latency::.cpu.inst     53181000                       # number of overall miss cycles
system.l2.overall_miss_latency::.cpu.data     60940500                       # number of overall miss cycles
system.l2.overall_miss_latency::total       114121500                       # number of overall miss cycles
system.l2.demand_accesses::.cpu.inst              965                       # number of demand (read+write) accesses
system.l2.demand_accesses::.cpu.data            31984                       # number of demand (read+write) accesses
system.l2.demand_accesses::total                32949                       # number of demand (read+write) accesses
system.l2.overall_accesses::.cpu.inst             965                       # number of overall (read+write) accesses
system.l2.overall_accesses::.cpu.data           31984                       # number of overall (read+write) accesses
system.l2.overall_accesses::total               32949                       # number of overall (read+write) accesses
system.l2.demand_miss_rate::.cpu.inst        0.718135                       # miss rate for demand accesses
system.l2.demand_miss_rate::.cpu.data        0.024919                       # miss rate for demand accesses
system.l2.demand_miss_rate::total            0.045221                       # miss rate for demand accesses
system.l2.overall_miss_rate::.cpu.inst       0.718135                       # miss rate for overall accesses
system.l2.overall_miss_rate::.cpu.data       0.024919                       # miss rate for overall accesses
system.l2.overall_miss_rate::total           0.045221                       # miss rate for overall accesses
system.l2.demand_avg_miss_latency::.cpu.inst 76740.259740                       # average overall miss latency
system.l2.demand_avg_miss_latency::.cpu.data 76462.358846                       # average overall miss latency
system.l2.demand_avg_miss_latency::total 76591.610738                       # average overall miss latency
system.l2.overall_avg_miss_latency::.cpu.inst 76740.259740                       # average overall miss latency
system.l2.overall_avg_miss_latency::.cpu.data 76462.358846                       # average overall miss latency
system.l2.overall_avg_miss_latency::total 76591.610738                       # average overall miss latency
system.l2.blocked_cycles::no_mshrs                  0                       # number of cycles access was blocked
system.l2.blocked_cycles::no_targets                0                       # number of cycles access was blocked
system.l2.blocked::no_mshrs                         0                       # number of cycles access was blocked
system.l2.blocked::no_targets                       0                       # number of cycles access was blocked
system.l2.avg_blocked_cycles::no_mshrs            nan                       # average number of cycles each access was blocked
system.l2.avg_blocked_cycles::no_targets          nan                       # average number of cycles each access was blocked
system.l2.demand_mshr_misses::.cpu.inst           693                       # number of demand (read+write) MSHR misses
system.l2.demand_mshr_misses::.cpu.data           797                       # number of demand (read+write) MSHR misses
system.l2.demand_mshr_misses::total              1490                       # number of demand (read+write) MSHR misses
system.l2.overall_mshr_misses::.cpu.inst          693                       # number of overall MSHR misses
system.l2.overall_mshr_misses::.cpu.data          797                       # number of overall MSHR misses
system.l2.overall_mshr_misses::total             1490                       # number of overall MSHR misses
system.l2.demand_mshr_miss_latency::.cpu.inst     46251000                       # number of demand (read+write) MSHR miss cycles
system.l2.demand_mshr_miss_latency::.cpu.data     52970500                       # number of demand (read+write) MSHR miss cycles
system.l2.demand_mshr_miss_latency::total     99221500                       # number of demand (read+write) MSHR miss cycles
system.l2.overall_mshr_miss_latency::.cpu.inst     46251000                       # number of overall MSHR miss cycles
system.l2.overall_mshr_miss_latency::.cpu.data     52970500                       # number of overall MSHR miss cycles
system.l2.overall_mshr_miss_latency::total     99221500                       # number of overall MSHR miss cycles
system.l2.demand_mshr_miss_rate::.cpu.inst     0.718135                       # mshr miss rate for demand accesses
system.l2.demand_mshr_miss_rate::.cpu.data     0.024919                       # mshr miss rate for demand accesses
system.l2.demand_mshr_miss_rate::total       0.045221                       # mshr miss rate for demand accesses
system.l2.overall_mshr_miss_rate::.cpu.inst     0.718135                       # mshr miss rate for overall accesses
system.l2.overall_mshr_miss_rate::.cpu.data     0.024919                       # mshr miss rate for overall accesses
system.l2.overall_mshr_miss_rate::total      0.045221                       # mshr miss rate for overall accesses
system.l2.demand_avg_mshr_miss_latency::.cpu.inst 66740.259740                       # average overall mshr miss latency
system.l2.demand_avg_mshr_miss_latency::.cpu.data 66462.358846                       # average overall mshr miss latency
system.l2.demand_avg_mshr_miss_latency::total 66591.610738                       # average overall mshr miss latency
system.l2.overall_avg_mshr_miss_latency::.cpu.inst 66740.259740                       # average overall mshr miss latency
system.l2.overall_avg_mshr_miss_latency::.cpu.data 66462.358846                       # average overall mshr miss latency
system.l2.overall_avg_mshr_miss_latency::total 66591.610738                       # average overall mshr miss latency
system.l2.replacements                              0                       # number of replacements
system.l2.WritebackDirty_hits::.writebacks        31427                       # number of WritebackDirty hits
system.l2.WritebackDirty_hits::total            31427                       # number of WritebackDirty hits
system.l2.WritebackDirty_accesses::.writebacks        31427                       # number of WritebackDirty accesses(hits+misses)
system.l2.WritebackDirty_accesses::total        31427                       # number of WritebackDirty accesses(hits+misses)
system.l2.WritebackClean_hits::.writebacks          709                       # number of WritebackClean hits
system.l2.WritebackClean_hits::total              709                       # number of WritebackClean hits
system.l2.WritebackClean_accesses::.writebacks          709                       # number of WritebackClean accesses(hits+misses)
system.l2.WritebackClean_accesses::total          709                       # number of WritebackClean accesses(hits+misses)
system.l2.ReadExReq_hits::.cpu.data               209                       # number of ReadExReq hits
system.l2.ReadExReq_hits::total                   209                       # number of ReadExReq hits
system.l2.ReadExReq_misses::.cpu.data             701                       # number of ReadExReq misses
system.l2.ReadExReq_misses::total                 701                       # number of ReadExReq misses
system.l2.ReadExReq_miss_latency::.cpu.data     53046500                       # number of ReadExReq miss cycles
system.l2.ReadExReq_miss_latency::total      53046500                       # number of ReadExReq miss cycles
system.l2.ReadExReq_accesses::.cpu.data           910                       # number of ReadExReq accesses(hits+misses)
system.l2.ReadExReq_accesses::total               910                       # number of ReadExReq accesses(hits+misses)
system.l2.ReadExReq_miss_rate::.cpu.data     0.770330                       # miss rate for ReadExReq accesses
system.l2.ReadExReq_miss_rate::total         0.770330                       # miss rate for ReadExReq accesses
system.l2.ReadExReq_avg_miss_latency::.cpu.data 75672.610556                       # average ReadExReq miss latency
system.l2.ReadExReq_avg_miss_latency::total 75672.610556                       # average ReadExReq miss latency
system.l2.ReadExReq_mshr_misses::.cpu.data          701                       # number of ReadExReq MSHR misses
system.l2.ReadExReq_mshr_misses::total            701                       # number of ReadExReq MSHR misses
system.l2.ReadExReq_mshr_miss_latency::.cpu.data     46036500                       # number of ReadExReq MSHR miss cycles
system.l2.ReadExReq_mshr_miss_latency::total     46036500                       # number of ReadExReq MSHR miss cycles
system.l2.ReadExReq_mshr_miss_rate::.cpu.data     0.770330                       # mshr miss rate for ReadExReq accesses
system.l2.ReadExReq_mshr_miss_rate::total     0.770330                       # mshr miss rate for ReadExReq accesses
system.l2.ReadExReq_avg_mshr_miss_latency::.cpu.data 65672.610556                       # average ReadExReq mshr miss latency
system.l2.ReadExReq_avg_mshr_miss_latency::total 65672.610556                       # average ReadExReq mshr miss latency
system.l2.ReadCleanReq_hits::.cpu.inst            272                       # number of ReadCleanReq hits
system.l2.ReadCleanReq_hits::total                272                       # number of ReadCleanReq hits
system.l2.ReadCleanReq_misses::.cpu.inst          693                       # number of ReadCleanReq misses
system.l2.ReadCleanReq_misses::total              693                       # number of ReadCleanReq misses
system.l2.ReadCleanReq_miss_latency::.cpu.inst     53181000                       # number of ReadCleanReq miss cycles
system.l2.ReadCleanReq_miss_latency::total     53181000                       # number of ReadCleanReq miss cycles
system.l2.ReadCleanReq_accesses::.cpu.inst          965                       # number of ReadCleanReq accesses(hits+misses)
system.l2.ReadCleanReq_accesses::total            965                       # number of ReadCleanReq accesses(hits+misses)
system.l2.ReadCleanReq_miss_rate::.cpu.inst     0.718135                       # miss rate for ReadCleanReq accesses
system.l2.ReadCleanReq_miss_rate::total      0.718135                       # miss rate for ReadCleanReq accesses
system.l2.ReadCleanReq_avg_miss_latency::.cpu.inst 76740.259740                       # average ReadCleanReq miss latency
system.l2.ReadCleanReq_avg_miss_latency::total 76740.259740                       # average ReadCleanReq miss latency
system.l2.ReadCleanReq_mshr_misses::.cpu.inst          693                       # number of ReadCleanReq MSHR misses
system.l2.ReadCleanReq_mshr_misses::total          693                       # number of ReadCleanReq MSHR misses
system.l2.ReadCleanReq_mshr_miss_latency::.cpu.inst     46251000                       # number of ReadCleanReq MSHR miss cycles
system.l2.ReadCleanReq_mshr_miss_latency::total     46251000                       # number of ReadCleanReq MSHR miss cycles
system.l2.ReadCleanReq_mshr_miss_rate::.cpu.inst     0.718135                       # mshr miss rate for ReadCleanReq accesses
system.l2.ReadCleanReq_mshr_miss_rate::total     0.718135                       # mshr miss rate for ReadCleanReq accesses
system.l2.ReadCleanReq_avg_mshr_miss_latency::.cpu.inst 66740.259740                       # average ReadCleanReq mshr miss latency
system.l2.ReadCleanReq_avg_mshr_miss_latency::total 66740.259740                       # average ReadCleanReq mshr miss latency
system.l2.ReadSharedReq_hits::.cpu.data         30978                       # number of ReadSharedReq hits
system.l2.ReadSharedReq_hits::total             30978                       # number of ReadSharedReq hits
system.l2.ReadSharedReq_misses::.cpu.data           96                       # number of ReadSharedReq misses
system.l2.ReadSharedReq_misses::total              96                       # number of ReadSharedReq misses
system.l2.ReadSharedReq_miss_latency::.cpu.data      7894000                       # number of ReadSharedReq miss cycles
system.l2.ReadSharedReq_miss_latency::total      7894000                       # number of ReadSharedReq miss cycles
system.l2.ReadSharedReq_accesses::.cpu.data        31074                       # number of ReadSharedReq accesses(hits+misses)
system.l2.ReadSharedReq_accesses::total         31074                       # number of ReadSharedReq accesses(hits+misses)
system.l2.ReadSharedReq_miss_rate::.cpu.data     0.003089                       # miss rate for ReadSharedReq accesses
system.l2.ReadSharedReq_miss_rate::total     0.003089                       # miss rate for ReadSharedReq accesses
system.l2.ReadSharedReq_avg_miss_latency::.cpu.data 82229.166667                       # average ReadSharedReq miss latency
system.l2.ReadSharedReq_avg_miss_latency::total 82229.166667                       # average ReadSharedReq miss latency
system.l2.ReadSharedReq_mshr_misses::.cpu.data           96                       # number of ReadSharedReq MSHR misses
system.l2.ReadSharedReq_mshr_misses::total           96                       # number of ReadSharedReq MSHR misses
system.l2.ReadSharedReq_mshr_miss_latency::.cpu.data      6934000                       # number of ReadSharedReq MSHR miss cycles
system.l2.ReadSharedReq_mshr_miss_latency::total      6934000                       # number of ReadSharedReq MSHR miss cycles
system.l2.ReadSharedReq_mshr_miss_rate::.cpu.data     0.003089                       # mshr miss rate for ReadSharedReq accesses
system.l2.ReadSharedReq_mshr_miss_rate::total     0.003089                       # mshr miss rate for ReadSharedReq accesses
system.l2.ReadSharedReq_avg_mshr_miss_latency::.cpu.data 72229.166667                       # average ReadSharedReq mshr miss latency
system.l2.ReadSharedReq_avg_mshr_miss_latency::total 72229.166667                       # average ReadSharedReq mshr miss latency
system.l2.InvalidateReq_misses::.cpu.data          545                       # number of InvalidateReq misses
system.l2.InvalidateReq_misses::total             545                       # number of InvalidateReq misses
system.l2.InvalidateReq_accesses::.cpu.data          545                       # number of InvalidateReq accesses(hits+misses)
system.l2.InvalidateReq_accesses::total           545                       # number of InvalidateReq accesses(hits+misses)
system.l2.InvalidateReq_miss_rate::.cpu.data            1                       # miss rate for InvalidateReq accesses
system.l2.InvalidateReq_miss_rate::total            1                       # miss rate for InvalidateReq accesses
system.l2.InvalidateReq_mshr_misses::.cpu.data          545                       # number of InvalidateReq MSHR misses
system.l2.InvalidateReq_mshr_misses::total          545                       # number of InvalidateReq MSHR misses
system.l2.InvalidateReq_mshr_miss_latency::.cpu.data     10354000                       # number of InvalidateReq MSHR miss cycles
system.l2.InvalidateReq_mshr_miss_latency::total     10354000                       # number of InvalidateReq MSHR miss cycles
system.l2.InvalidateReq_mshr_miss_rate::.cpu.data            1                       # mshr miss rate for InvalidateReq accesses
system.l2.InvalidateReq_mshr_miss_rate::total            1                       # mshr miss rate for InvalidateReq accesses
system.l2.InvalidateReq_avg_mshr_miss_latency::.cpu.data 18998.165138                       # average InvalidateReq mshr miss latency
system.l2.InvalidateReq_avg_mshr_miss_latency::total 18998.165138                       # average InvalidateReq mshr miss latency
system.l2.power_state.pwrStateResidencyTicks::UNDEFINED  82760532500                       # Cumulative time (in ticks) in various power states
system.l2.tags.tagsinuse                  1587.654033                       # Cycle average of tags in use
system.l2.tags.total_refs                       65166                       # Total number of references to valid blocks.
system.l2.tags.sampled_refs                      1596                       # Sample count of references to valid blocks.
system.l2.tags.avg_refs                     40.830827                       # Average number of references to valid blocks.
system.l2.tags.warmup_cycle                     77000                       # Cycle when the warmup percentage was hit.
system.l2.tags.occ_blocks::.writebacks     105.119343                       # Average occupied blocks per requestor
system.l2.tags.occ_blocks::.cpu.inst       690.522865                       # Average occupied blocks per requestor
system.l2.tags.occ_blocks::.cpu.data       792.011825                       # Average occupied blocks per requestor
system.l2.tags.occ_percent::.writebacks      0.003208                       # Average percentage of cache occupancy
system.l2.tags.occ_percent::.cpu.inst        0.021073                       # Average percentage of cache occupancy
system.l2.tags.occ_percent::.cpu.data        0.024170                       # Average percentage of cache occupancy
system.l2.tags.occ_percent::total            0.048451                       # Average percentage of cache occupancy
system.l2.tags.occ_task_id_blocks::1024          1596                       # Occupied blocks per task id
system.l2.tags.age_task_id_blocks_1024::4         1596                       # Occupied blocks per task id
system.l2.tags.occ_task_id_percent::1024     0.048706                       # Percentage of cache occupancy per task id
system.l2.tags.tag_accesses                    527284                       # Number of tag accesses
system.l2.tags.data_accesses                   527284                       # Number of data accesses
system.l2.tags.power_state.pwrStateResidencyTicks::UNDEFINED  82760532500                       # Cumulative time (in ticks) in various power states
system.cpu_voltage_domain.voltage                   1                       # Voltage in Volts
system.mem_ctrls.bytes_read::.cpu.inst          44352                       # Number of bytes read from this memory
system.mem_ctrls.bytes_read::.cpu.data          51008                       # Number of bytes read from this memory
system.mem_ctrls.bytes_read::total              95360                       # Number of bytes read from this memory
system.mem_ctrls.bytes_inst_read::.cpu.inst        44352                       # Number of instructions bytes read from this memory
system.mem_ctrls.bytes_inst_read::total         44352                       # Number of instructions bytes read from this memory
system.mem_ctrls.num_reads::.cpu.inst             693                       # Number of read requests responded to by this memory
system.mem_ctrls.num_reads::.cpu.data             797                       # Number of read requests responded to by this memory
system.mem_ctrls.num_reads::total                1490                       # Number of read requests responded to by this memory
system.mem_ctrls.bw_read::.cpu.inst            535908                       # Total read bandwidth from this memory (bytes/s)
system.mem_ctrls.bw_read::.cpu.data            616332                       # Total read bandwidth from this memory (bytes/s)
system.mem_ctrls.bw_read::total               1152240                       # Total read bandwidth from this memory (bytes/s)
system.mem_ctrls.bw_inst_read::.cpu.inst       535908                       # Instruction read bandwidth from this memory (bytes/s)
system.mem_ctrls.bw_inst_read::total           535908                       # Instruction read bandwidth from this memory (bytes/s)
system.mem_ctrls.bw_total::.cpu.inst           535908                       # Total bandwidth to/from this memory (bytes/s)
system.mem_ctrls.bw_total::.cpu.data           616332                       # Total bandwidth to/from this memory (bytes/s)
system.mem_ctrls.bw_total::total              1152240                       # Total bandwidth to/from this memory (bytes/s)
system.mem_ctrls.avgPriority_.cpu.inst::samples       693.00                       # Average QoS priority value for accepted requests
system.mem_ctrls.avgPriority_.cpu.data::samples       797.00                       # Average QoS priority value for accepted requests
system.mem_ctrls.priorityMinLatency      0.000000018750                       # per QoS priority minimum request to response latency (s)
system.mem_ctrls.priorityMaxLatency      0.000000575500                       # per QoS priority maximum request to response latency (s)
system.mem_ctrls.numReadWriteTurnArounds            0                       # Number of turnarounds from READ to WRITE
system.mem_ctrls.numWriteReadTurnArounds            0                       # Number of turnarounds from WRITE to READ
system.mem_ctrls.numStayReadState               24227                       # Number of times bus staying in READ state
system.mem_ctrls.numStayWriteState                  0                       # Number of times bus staying in WRITE state
system.mem_ctrls.readReqs                        1490                       # Number of read requests accepted
system.mem_ctrls.writeReqs                          0                       # Number of write requests accepted
system.mem_ctrls.readBursts                      1490                       # Number of DRAM read bursts, including those serviced by the write queue
system.mem_ctrls.writeBursts                        0                       # Number of DRAM write bursts, including those merged in the write queue
system.mem_ctrls.servicedByWrQ                      0                       # Number of DRAM read bursts serviced by the write queue
system.mem_ctrls.mergedWrBursts                     0                       # Number of DRAM write bursts merged with an existing one
system.mem_ctrls.neitherReadNorWriteReqs            0                       # Number of requests that are neither read nor write
system.mem_ctrls.perBankRdBursts::0               199                       # Per bank write bursts
system.mem_ctrls.perBankRdBursts::1                94                       # Per bank write bursts
system.mem_ctrls.perBankRdBursts::2               109                       # Per bank write bursts
system.mem_ctrls.perBankRdBursts::3                80                       # Per bank write bursts
system.mem_ctrls.perBankRdBursts::4               124                       # Per bank write bursts
system.mem_ctrls.perBankRdBursts::5                 5                       # Per bank write bursts
system.mem_ctrls.perBankRdBursts::6                38                       # Per bank write bursts
system.mem_ctrls.perBankRdBursts::7                 0                       # Per bank write bursts
system.mem_ctrls.perBankRdBursts::8               110                       # Per bank write bursts
system.mem_ctrls.perBankRdBursts::9               145                       # Per bank write bursts
system.mem_ctrls.perBankRdBursts::10              141                       # Per bank write bursts
system.mem_ctrls.perBankRdBursts::11              104                       # Per bank write bursts
system.mem_ctrls.perBankRdBursts::12              164                       # Per bank write bursts
system.mem_ctrls.perBankRdBursts::13               11                       # Per bank write bursts
system.mem_ctrls.perBankRdBursts::14               50                       # Per bank write bursts
system.mem_ctrls.perBankRdBursts::15              116                       # Per bank write bursts
system.mem_ctrls.perBankWrBursts::0                 0                       # Per bank write bursts
system.mem_ctrls.perBankWrBursts::1                 0                       # Per bank write bursts
system.mem_ctrls.perBankWrBursts::2                 0                       # Per bank write bursts
system.mem_ctrls.perBankWrBursts::3                 0                       # Per bank write bursts
system.mem_ctrls.perBankWrBursts::4                 0                       # Per bank write bursts
system.mem_ctrls.perBankWrBursts::5                 0                       # Per bank write bursts
system.mem_ctrls.perBankWrBursts::6                 0                       # Per bank write bursts
system.mem_ctrls.perBankWrBursts::7                 0                       # Per bank write bursts
system.mem_ctrls.perBankWrBursts::8                 0                       # Per bank write bursts
system.mem_ctrls.perBankWrBursts::9                 0                       # Per bank write bursts
system.mem_ctrls.perBankWrBursts::10                0                       # Per bank write bursts
system.mem_ctrls.perBankWrBursts::11                0                       # Per bank write bursts
system.mem_ctrls.perBankWrBursts::12                0                       # Per bank write bursts
system.mem_ctrls.perBankWrBursts::13                0                       # Per bank write bursts
system.mem_ctrls.perBankWrBursts::14                0                       # Per bank write bursts
system.mem_ctrls.perBankWrBursts::15                0                       # Per bank write bursts
system.mem_ctrls.avgRdQLen                       1.00                       # Average read queue length when enqueuing
system.mem_ctrls.avgWrQLen                       0.00                       # Average write queue length when enqueuing
system.mem_ctrls.totQLat                     10045250                       # Total ticks spent queuing
system.mem_ctrls.totBusLat                    7450000                       # Total ticks spent in databus transfers
system.mem_ctrls.totMemAccLat                37982750                       # Total ticks spent from burst creation until serviced by the DRAM
system.mem_ctrls.avgQLat                      6741.78                       # Average queueing delay per DRAM burst
system.mem_ctrls.avgBusLat                    5000.00                       # Average bus latency per DRAM burst
system.mem_ctrls.avgMemAccLat                25491.78                       # Average memory access latency per DRAM burst
system.mem_ctrls.numRdRetry                         0                       # Number of times read queue was full causing retry
system.mem_ctrls.numWrRetry                         0                       # Number of times write queue was full causing retry
system.mem_ctrls.readRowHits                     1210                       # Number of row buffer hits during reads
system.mem_ctrls.writeRowHits                       0                       # Number of row buffer hits during writes
system.mem_ctrls.readRowHitRate                 81.21                       # Row buffer hit rate for reads
system.mem_ctrls.writeRowHitRate                  nan                       # Row buffer hit rate for writes
system.mem_ctrls.readPktSize::0                     0                       # Read request sizes (log2)
system.mem_ctrls.readPktSize::1                     0                       # Read request sizes (log2)
system.mem_ctrls.readPktSize::2                     0                       # Read request sizes (log2)
system.mem_ctrls.readPktSize::3                     0                       # Read request sizes (log2)
system.mem_ctrls.readPktSize::4                     0                       # Read request sizes (log2)
system.mem_ctrls.readPktSize::5                     0                       # Read request sizes (log2)
system.mem_ctrls.readPktSize::6                  1490                       # Read request sizes (log2)
system.mem_ctrls.writePktSize::0                    0                       # Write request sizes (log2)
system.mem_ctrls.writePktSize::1                    0                       # Write request sizes (log2)
system.mem_ctrls.writePktSize::2                    0                       # Write request sizes (log2)
system.mem_ctrls.writePktSize::3                    0                       # Write request sizes (log2)
system.mem_ctrls.writePktSize::4                    0                       # Write request sizes (log2)
system.mem_ctrls.writePktSize::5                    0                       # Write request sizes (log2)
system.mem_ctrls.writePktSize::6                    0                       # Write request sizes (log2)
system.mem_ctrls.rdQLenPdf::0                    1373                       # What read queue length does an incoming req see
system.mem_ctrls.rdQLenPdf::1                     105                       # What read queue length does an incoming req see
system.mem_ctrls.rdQLenPdf::2                      12                       # What read queue length does an incoming req see
system.mem_ctrls.rdQLenPdf::3                       0                       # What read queue length does an incoming req see
system.mem_ctrls.rdQLenPdf::4                       0                       # What read queue length does an incoming req see
system.mem_ctrls.rdQLenPdf::5                       0                       # What read queue length does an incoming req see
system.mem_ctrls.rdQLenPdf::6                       0                       # What read queue length does an incoming req see
system.mem_ctrls.rdQLenPdf::7                       0                       # What read queue length does an incoming req see
system.mem_ctrls.rdQLenPdf::8                       0                       # What read queue length does an incoming req see
system.mem_ctrls.rdQLenPdf::9                       0                       # What read queue length does an incoming req see
system.mem_ctrls.rdQLenPdf::10                      0                       # What read queue length does an incoming req see
system.mem_ctrls.rdQLenPdf::11                      0                       # What read queue length does an incoming req see
system.mem_ctrls.rdQLenPdf::12                      0                       # What read queue length does an incoming req see
system.mem_ctrls.rdQLenPdf::13                      0                       # What read queue length does an incoming req see
system.mem_ctrls.rdQLenPdf::14                      0                       # What read queue length does an incoming req see
system.mem_ctrls.rdQLenPdf::15                      0                       # What read queue length does an incoming req see
system.mem_ctrls.rdQLenPdf::16                      0                       # What read queue length does an incoming req see
system.mem_ctrls.rdQLenPdf::17                      0                       # What read queue length does an incoming req see
system.mem_ctrls.rdQLenPdf::18                      0                       # What read queue length does an incoming req see
system.mem_ctrls.rdQLenPdf::19                      0                       # What read queue length does an incoming req see
system.mem_ctrls.rdQLenPdf::20                      0                       # What read queue length does an incoming req see
system.mem_ctrls.rdQLenPdf::21                      0                       # What read queue length does an incoming req see
system.mem_ctrls.rdQLenPdf::22                      0                       # What read queue length does an incoming req see
system.mem_ctrls.rdQLenPdf::23                      0                       # What read queue length does an incoming req see
system.mem_ctrls.rdQLenPdf::24                      0                       # What read queue length does an incoming req see
system.mem_ctrls.rdQLenPdf::25                      0                       # What read queue length does an incoming req see
system.mem_ctrls.rdQLenPdf::26                      0                       # What read queue length does an incoming req see
system.mem_ctrls.rdQLenPdf::27                      0                       # What read queue length does an incoming req see
system.mem_ctrls.rdQLenPdf::28                      0                       # What read queue length does an incoming req see
system.mem_ctrls.rdQLenPdf::29                      0                       # What read queue length does an incoming req see
system.mem_ctrls.rdQLenPdf::30                      0                       # What read queue length does an incoming req see
system.mem_ctrls.rdQLenPdf::31                      0                       # What read queue length does an incoming req see
system.mem_ctrls.wrQLenPdf::0                       0                       # What write queue length does an incoming req see
system.mem_ctrls.wrQLenPdf::1                       0                       # What write queue length does an incoming req see
system.mem_ctrls.wrQLenPdf::2                       0                       # What write queue length does an incoming req see
system.mem_ctrls.wrQLenPdf::3                       0                       # What write queue length does an incoming req see
system.mem_ctrls.wrQLenPdf::4                       0                       # What write queue length does an incoming req see
system.mem_ctrls.wrQLenPdf::5                       0                       # What write queue length does an incoming req see
system.mem_ctrls.wrQLenPdf::6                       0                       # What write queue length does an incoming req see
system.mem_ctrls.wrQLenPdf::7                       0                       # What write queue length does an incoming req see
system.mem_ctrls.wrQLenPdf::8                       0                       # What write queue length does an incoming req see
system.mem_ctrls.wrQLenPdf::9                       0                       # What write queue length does an incoming req see
system.mem_ctrls.wrQLenPdf::10                      0                       # What write queue length does an incoming req see
system.mem_ctrls.wrQLenPdf::11                      0                       # What write queue length does an incoming req see
system.mem_ctrls.wrQLenPdf::12                      0                       # What write queue length does an incoming req see
system.mem_ctrls.wrQLenPdf::13                      0                       # What write queue length does an incoming req see
system.mem_ctrls.wrQLenPdf::14                      0                       # What write queue length does an incoming req see
system.mem_ctrls.wrQLenPdf::15                      0                       # What write queue length does an incoming req see
system.mem_ctrls.wrQLenPdf::16                      0                       # What write queue length does an incoming req see
system.mem_ctrls.wrQLenPdf::17                      0                       # What write queue length does an incoming req see
system.mem_ctrls.wrQLenPdf::18                      0                       # What write queue length does an incoming req see
system.mem_ctrls.wrQLenPdf::19                      0                       # What write queue length does an incoming req see
system.mem_ctrls.wrQLenPdf::20                      0                       # What write queue length does an incoming req see
system.mem_ctrls.wrQLenPdf::21                      0                       # What write queue length does an incoming req see
system.mem_ctrls.wrQLenPdf::22                      0                       # What write queue length does an incoming req see
system.mem_ctrls.wrQLenPdf::23                      0                       # What write queue length does an incoming req see
system.mem_ctrls.wrQLenPdf::24                      0                       # What write queue length does an incoming req see
system.mem_ctrls.wrQLenPdf::25                      0                       # What write queue length does an incoming req see
system.mem_ctrls.wrQLenPdf::26                      0                       # What write queue length does an incoming req see
system.mem_ctrls.wrQLenPdf::27                      0                       # What write queue length does an incoming req see
system.mem_ctrls.wrQLenPdf::28                      0                       # What write queue length does an incoming req see
system.mem_ctrls.wrQLenPdf::29                      0                       # What write queue length does an incoming req see
system.mem_ctrls.wrQLenPdf::30                      0                       # What write queue length does an incoming req see
system.mem_ctrls.wrQLenPdf::31                      0                       # What write queue length does an incoming req see
system.mem_ctrls.wrQLenPdf::32                      0                       # What write queue length does an incoming req see
system.mem_ctrls.wrQLenPdf::33                      0                       # What write queue length does an incoming req see
system.mem_ctrls.wrQLenPdf::34                      0                       # What write queue length does an incoming req see
system.mem_ctrls.wrQLenPdf::35                      0                       # What write queue length does an incoming req see
system.mem_ctrls.wrQLenPdf::36                      0                       # What write queue length does an incoming req see
system.mem_ctrls.wrQLenPdf::37                      0                       # What write queue length does an incoming req see
system.mem_ctrls.wrQLenPdf::38                      0                       # What write queue length does an incoming req see
system.mem_ctrls.wrQLenPdf::39                      0                       # What write queue length does an incoming req see
system.mem_ctrls.wrQLenPdf::40                      0                       # What write queue length does an incoming req see
system.mem_ctrls.wrQLenPdf::41                      0                       # What write queue length does an incoming req see
system.mem_ctrls.wrQLenPdf::42                      0                       # What write queue length does an incoming req see
system.mem_ctrls.wrQLenPdf::43                      0                       # What write queue length does an incoming req see
system.mem_ctrls.wrQLenPdf::44                      0                       # What write queue length does an incoming req see
system.mem_ctrls.wrQLenPdf::45                      0                       # What write queue length does an incoming req see
system.mem_ctrls.wrQLenPdf::46                      0                       # What write queue length does an incoming req see
system.mem_ctrls.wrQLenPdf::47                      0                       # What write queue length does an incoming req see
system.mem_ctrls.wrQLenPdf::48                      0                       # What write queue length does an incoming req see
system.mem_ctrls.wrQLenPdf::49                      0                       # What write queue length does an incoming req see
system.mem_ctrls.wrQLenPdf::50                      0                       # What write queue length does an incoming req see
system.mem_ctrls.wrQLenPdf::51                      0                       # What write queue length does an incoming req see
system.mem_ctrls.wrQLenPdf::52                      0                       # What write queue length does an incoming req see
system.mem_ctrls.wrQLenPdf::53                      0                       # What write queue length does an incoming req see
system.mem_ctrls.wrQLenPdf::54                      0                       # What write queue length does an incoming req see
system.mem_ctrls.wrQLenPdf::55                      0                       # What write queue length does an incoming req see
system.mem_ctrls.wrQLenPdf::56                      0                       # What write queue length does an incoming req see
system.mem_ctrls.wrQLenPdf::57                      0                       # What write queue length does an incoming req see
system.mem_ctrls.wrQLenPdf::58                      0                       # What write queue length does an incoming req see
system.mem_ctrls.wrQLenPdf::59                      0                       # What write queue length does an incoming req see
system.mem_ctrls.wrQLenPdf::60                      0                       # What write queue length does an incoming req see
system.mem_ctrls.wrQLenPdf::61                      0                       # What write queue length does an incoming req see
system.mem_ctrls.wrQLenPdf::62                      0                       # What write queue length does an incoming req see
system.mem_ctrls.wrQLenPdf::63                      0                       # What write queue length does an incoming req see
system.mem_ctrls.bytesPerActivate::samples          280                       # Bytes accessed per row activation
system.mem_ctrls.bytesPerActivate::mean    340.571429                       # Bytes accessed per row activation
system.mem_ctrls.bytesPerActivate::gmean   208.791219                       # Bytes accessed per row activation
system.mem_ctrls.bytesPerActivate::stdev   334.272594                       # Bytes accessed per row activation
system.mem_ctrls.bytesPerActivate::0-127           87     31.07%     31.07% # Bytes accessed per row activation
system.mem_ctrls.bytesPerActivate::128-255           59     21.07%     52.14% # Bytes accessed per row activation
system.mem_ctrls.bytesPerActivate::256-383           49     17.50%     69.64% # Bytes accessed per row activation
system.mem_ctrls.bytesPerActivate::384-511           19      6.79%     76.43% # Bytes accessed per row activation
system.mem_ctrls.bytesPerActivate::512-639            6      2.14%     78.57% # Bytes accessed per row activation
system.mem_ctrls.bytesPerActivate::640-767            8      2.86%     81.43% # Bytes accessed per row activation
system.mem_ctrls.bytesPerActivate::768-895            9      3.21%     84.64% # Bytes accessed per row activation
system.mem_ctrls.bytesPerActivate::896-1023            7      2.50%     87.14% # Bytes accessed per row activation
system.mem_ctrls.bytesPerActivate::1024-1151           36     12.86%    100.00% # Bytes accessed per row activation
system.mem_ctrls.bytesPerActivate::total          280                       # Bytes accessed per row activation
system.mem_ctrls.bytesReadDRAM                  95360                       # Total number of bytes read from DRAM
system.mem_ctrls.bytesReadWrQ                       0                       # Total number of bytes read from write queue
system.mem_ctrls.bytesWritten                       0                       # Total number of bytes written to DRAM
system.mem_ctrls.bytesReadSys                   95360                       # Total read bytes from the system interface side
system.mem_ctrls.bytesWrittenSys                    0                       # Total written bytes from the system interface side
system.mem_ctrls.avgRdBW                         1.15                       # Average DRAM read bandwidth in MiByte/s
system.mem_ctrls.avgWrBW                         0.00                       # Average achieved write bandwidth in MiByte/s
system.mem_ctrls.avgRdBWSys                      1.15                       # Average system read bandwidth in MiByte/s
system.mem_ctrls.avgWrBWSys                      0.00                       # Average system write bandwidth in MiByte/s
system.mem_ctrls.peakBW                      12800.00                       # Theoretical peak bandwidth in MiByte/s
system.mem_ctrls.busUtil                         0.01                       # Data bus utilization in percentage
system.mem_ctrls.busUtilRead                     0.01                       # Data bus utilization in percentage for reads
system.mem_ctrls.busUtilWrite                    0.00                       # Data bus utilization in percentage for writes
system.mem_ctrls.totGap                   10393510000                       # Total gap between requests
system.mem_ctrls.avgGap                    6975510.07                       # Average gap between requests
system.mem_ctrls.masterReadBytes::.cpu.inst        44352                       # Per-master bytes read from memory
system.mem_ctrls.masterReadBytes::.cpu.data        51008                       # Per-master bytes read from memory
system.mem_ctrls.masterReadRate::.cpu.inst 535907.619975741487                       # Per-master bytes read from memory rate (Bytes/sec)
[...]
system.cpu.icache.tags.tag_accesses          75899765                       # Number of tag accesses
system.cpu.icache.tags.data_accesses         75899765                       # Number of data accesses
system.cpu.icache.tags.power_state.pwrStateResidencyTicks::UNDEFINED  82760532500                       # Cumulative time (in ticks) in various power states
system.cpu.dtb.walker.power_state.pwrStateResidencyTicks::UNDEFINED  82760532500                       # Cumulative time (in ticks) in various power states
system.cpu.dtb.stage2_mmu.stage2_tlb.walker.power_state.pwrStateResidencyTicks::UNDEFINED  82760532500                       # Cumulative time (in ticks) in various power states
system.cpu.dcache.demand_hits::.cpu.data     31787639                       # number of demand (read+write) hits
system.cpu.dcache.demand_hits::total         31787639                       # number of demand (read+write) hits
system.cpu.dcache.overall_hits::.cpu.data     31787661                       # number of overall hits
system.cpu.dcache.overall_hits::total        31787661                       # number of overall hits
system.cpu.dcache.demand_misses::.cpu.data        33399                       # number of demand (read+write) misses
system.cpu.dcache.demand_misses::total          33399                       # number of demand (read+write) misses
system.cpu.dcache.overall_misses::.cpu.data        33401                       # number of overall misses
system.cpu.dcache.overall_misses::total         33401                       # number of overall misses
system.cpu.dcache.demand_miss_latency::.cpu.data    534822500                       # number of demand (read+write) miss cycles
system.cpu.dcache.demand_miss_latency::total    534822500                       # number of demand (read+write) miss cycles
system.cpu.dcache.overall_miss_latency::.cpu.data    534822500                       # number of overall miss cycles
system.cpu.dcache.overall_miss_latency::total    534822500                       # number of overall miss cycles
system.cpu.dcache.demand_accesses::.cpu.data     31821038                       # number of demand (read+write) accesses
system.cpu.dcache.demand_accesses::total     31821038                       # number of demand (read+write) accesses
system.cpu.dcache.overall_accesses::.cpu.data     31821062                       # number of overall (read+write) accesses
system.cpu.dcache.overall_accesses::total     31821062                       # number of overall (read+write) accesses
system.cpu.dcache.demand_miss_rate::.cpu.data     0.001050                       # miss rate for demand accesses
system.cpu.dcache.demand_miss_rate::total     0.001050                       # miss rate for demand accesses
system.cpu.dcache.overall_miss_rate::.cpu.data     0.001050                       # miss rate for overall accesses
system.cpu.dcache.overall_miss_rate::total     0.001050                       # miss rate for overall accesses
system.cpu.dcache.demand_avg_miss_latency::.cpu.data 16013.129136                       # average overall miss latency
system.cpu.dcache.demand_avg_miss_latency::total 16013.129136                       # average overall miss latency
system.cpu.dcache.overall_avg_miss_latency::.cpu.data 16012.170294                       # average overall miss latency
system.cpu.dcache.overall_avg_miss_latency::total 16012.170294                       # average overall miss latency
system.cpu.dcache.blocked_cycles::no_mshrs            0                       # number of cycles access was blocked
system.cpu.dcache.blocked_cycles::no_targets            0                       # number of cycles access was blocked
system.cpu.dcache.blocked::no_mshrs                 0                       # number of cycles access was blocked
system.cpu.dcache.blocked::no_targets               0                       # number of cycles access was blocked
system.cpu.dcache.avg_blocked_cycles::no_mshrs          nan                       # average number of cycles each access was blocked
system.cpu.dcache.avg_blocked_cycles::no_targets          nan                       # average number of cycles each access was blocked
system.cpu.dcache.writebacks::.writebacks        31427                       # number of writebacks
system.cpu.dcache.writebacks::total             31427                       # number of writebacks
system.cpu.dcache.demand_mshr_hits::.cpu.data          872                       # number of demand (read+write) MSHR hits
system.cpu.dcache.demand_mshr_hits::total          872                       # number of demand (read+write) MSHR hits
system.cpu.dcache.overall_mshr_hits::.cpu.data          872                       # number of overall MSHR hits
system.cpu.dcache.overall_mshr_hits::total          872                       # number of overall MSHR hits
system.cpu.dcache.demand_mshr_misses::.cpu.data        32527                       # number of demand (read+write) MSHR misses
system.cpu.dcache.demand_mshr_misses::total        32527                       # number of demand (read+write) MSHR misses
system.cpu.dcache.overall_mshr_misses::.cpu.data        32529                       # number of overall MSHR misses
system.cpu.dcache.overall_mshr_misses::total        32529                       # number of overall MSHR misses
system.cpu.dcache.demand_mshr_miss_latency::.cpu.data    452822500                       # number of demand (read+write) MSHR miss cycles
system.cpu.dcache.demand_mshr_miss_latency::total    452822500                       # number of demand (read+write) MSHR miss cycles
system.cpu.dcache.overall_mshr_miss_latency::.cpu.data    453007000                       # number of overall MSHR miss cycles
system.cpu.dcache.overall_mshr_miss_latency::total    453007000                       # number of overall MSHR miss cycles
system.cpu.dcache.demand_mshr_miss_rate::.cpu.data     0.001022                       # mshr miss rate for demand accesses
system.cpu.dcache.demand_mshr_miss_rate::total     0.001022                       # mshr miss rate for demand accesses
system.cpu.dcache.overall_mshr_miss_rate::.cpu.data     0.001022                       # mshr miss rate for overall accesses
system.cpu.dcache.overall_mshr_miss_rate::total     0.001022                       # mshr miss rate for overall accesses
system.cpu.dcache.demand_avg_mshr_miss_latency::.cpu.data 13921.434501                       # average overall mshr miss latency
system.cpu.dcache.demand_avg_mshr_miss_latency::total 13921.434501                       # average overall mshr miss latency
system.cpu.dcache.overall_avg_mshr_miss_latency::.cpu.data 13926.250423                       # average overall mshr miss latency
system.cpu.dcache.overall_avg_mshr_miss_latency::total 13926.250423                       # average overall mshr miss latency
system.cpu.dcache.replacements                  31509                       # number of replacements
system.cpu.dcache.ReadReq_hits::.cpu.data     25921360                       # number of ReadReq hits
system.cpu.dcache.ReadReq_hits::total        25921360                       # number of ReadReq hits
system.cpu.dcache.ReadReq_misses::.cpu.data        31084                       # number of ReadReq misses
system.cpu.dcache.ReadReq_misses::total         31084                       # number of ReadReq misses
system.cpu.dcache.ReadReq_miss_latency::.cpu.data    411443000                       # number of ReadReq miss cycles
system.cpu.dcache.ReadReq_miss_latency::total    411443000                       # number of ReadReq miss cycles
system.cpu.dcache.ReadReq_accesses::.cpu.data     25952444                       # number of ReadReq accesses(hits+misses)
system.cpu.dcache.ReadReq_accesses::total     25952444                       # number of ReadReq accesses(hits+misses)
system.cpu.dcache.ReadReq_miss_rate::.cpu.data     0.001198                       # miss rate for ReadReq accesses
system.cpu.dcache.ReadReq_miss_rate::total     0.001198                       # miss rate for ReadReq accesses
system.cpu.dcache.ReadReq_avg_miss_latency::.cpu.data 13236.488225                       # average ReadReq miss latency
system.cpu.dcache.ReadReq_avg_miss_latency::total 13236.488225                       # average ReadReq miss latency
system.cpu.dcache.ReadReq_mshr_hits::.cpu.data           12                       # number of ReadReq MSHR hits
system.cpu.dcache.ReadReq_mshr_hits::total           12                       # number of ReadReq MSHR hits
system.cpu.dcache.ReadReq_mshr_misses::.cpu.data        31072                       # number of ReadReq MSHR misses
system.cpu.dcache.ReadReq_mshr_misses::total        31072                       # number of ReadReq MSHR misses
system.cpu.dcache.ReadReq_mshr_miss_latency::.cpu.data    379591500                       # number of ReadReq MSHR miss cycles
system.cpu.dcache.ReadReq_mshr_miss_latency::total    379591500                       # number of ReadReq MSHR miss cycles
system.cpu.dcache.ReadReq_mshr_miss_rate::.cpu.data     0.001197                       # mshr miss rate for ReadReq accesses
system.cpu.dcache.ReadReq_mshr_miss_rate::total     0.001197                       # mshr miss rate for ReadReq accesses
system.cpu.dcache.ReadReq_avg_mshr_miss_latency::.cpu.data 12216.513260                       # average ReadReq mshr miss latency
system.cpu.dcache.ReadReq_avg_mshr_miss_latency::total 12216.513260                       # average ReadReq mshr miss latency
system.cpu.dcache.WriteReq_hits::.cpu.data      5866260                       # number of WriteReq hits
system.cpu.dcache.WriteReq_hits::total        5866260                       # number of WriteReq hits
system.cpu.dcache.WriteReq_misses::.cpu.data         1770                       # number of WriteReq misses
system.cpu.dcache.WriteReq_misses::total         1770                       # number of WriteReq misses
system.cpu.dcache.WriteReq_miss_latency::.cpu.data    106210500                       # number of WriteReq miss cycles
system.cpu.dcache.WriteReq_miss_latency::total    106210500                       # number of WriteReq miss cycles
system.cpu.dcache.WriteReq_accesses::.cpu.data      5868030                       # number of WriteReq accesses(hits+misses)
system.cpu.dcache.WriteReq_accesses::total      5868030                       # number of WriteReq accesses(hits+misses)
system.cpu.dcache.WriteReq_miss_rate::.cpu.data     0.000302                       # miss rate for WriteReq accesses
system.cpu.dcache.WriteReq_miss_rate::total     0.000302                       # miss rate for WriteReq accesses
system.cpu.dcache.WriteReq_avg_miss_latency::.cpu.data 60005.932203                       # average WriteReq miss latency
system.cpu.dcache.WriteReq_avg_miss_latency::total 60005.932203                       # average WriteReq miss latency
system.cpu.dcache.WriteReq_mshr_hits::.cpu.data          860                       # number of WriteReq MSHR hits
system.cpu.dcache.WriteReq_mshr_hits::total          860                       # number of WriteReq MSHR hits
system.cpu.dcache.WriteReq_mshr_misses::.cpu.data          910                       # number of WriteReq MSHR misses
system.cpu.dcache.WriteReq_mshr_misses::total          910                       # number of WriteReq MSHR misses
system.cpu.dcache.WriteReq_mshr_miss_latency::.cpu.data     56607000                       # number of WriteReq MSHR miss cycles
system.cpu.dcache.WriteReq_mshr_miss_latency::total     56607000                       # number of WriteReq MSHR miss cycles
system.cpu.dcache.WriteReq_mshr_miss_rate::.cpu.data     0.000155                       # mshr miss rate for WriteReq accesses
system.cpu.dcache.WriteReq_mshr_miss_rate::total     0.000155                       # mshr miss rate for WriteReq accesses
system.cpu.dcache.WriteReq_avg_mshr_miss_latency::.cpu.data 62205.494505                       # average WriteReq mshr miss latency
system.cpu.dcache.WriteReq_avg_mshr_miss_latency::total 62205.494505                       # average WriteReq mshr miss latency
system.cpu.dcache.SoftPFReq_hits::.cpu.data           22                       # number of SoftPFReq hits
system.cpu.dcache.SoftPFReq_hits::total            22                       # number of SoftPFReq hits
system.cpu.dcache.SoftPFReq_misses::.cpu.data            2                       # number of SoftPFReq misses
system.cpu.dcache.SoftPFReq_misses::total            2                       # number of SoftPFReq misses
system.cpu.dcache.SoftPFReq_accesses::.cpu.data           24                       # number of SoftPFReq accesses(hits+misses)
system.cpu.dcache.SoftPFReq_accesses::total           24                       # number of SoftPFReq accesses(hits+misses)
system.cpu.dcache.SoftPFReq_miss_rate::.cpu.data     0.083333                       # miss rate for SoftPFReq accesses
system.cpu.dcache.SoftPFReq_miss_rate::total     0.083333                       # miss rate for SoftPFReq accesses
system.cpu.dcache.SoftPFReq_mshr_misses::.cpu.data            2                       # number of SoftPFReq MSHR misses
system.cpu.dcache.SoftPFReq_mshr_misses::total            2                       # number of SoftPFReq MSHR misses
system.cpu.dcache.SoftPFReq_mshr_miss_latency::.cpu.data       184500                       # number of SoftPFReq MSHR miss cycles
system.cpu.dcache.SoftPFReq_mshr_miss_latency::total       184500                       # number of SoftPFReq MSHR miss cycles
system.cpu.dcache.SoftPFReq_mshr_miss_rate::.cpu.data     0.083333                       # mshr miss rate for SoftPFReq accesses
system.cpu.dcache.SoftPFReq_mshr_miss_rate::total     0.083333                       # mshr miss rate for SoftPFReq accesses
system.cpu.dcache.SoftPFReq_avg_mshr_miss_latency::.cpu.data        92250                       # average SoftPFReq mshr miss latency
system.cpu.dcache.SoftPFReq_avg_mshr_miss_latency::total        92250                       # average SoftPFReq mshr miss latency
system.cpu.dcache.WriteLineReq_hits::.cpu.data           19                       # number of WriteLineReq hits
system.cpu.dcache.WriteLineReq_hits::total           19                       # number of WriteLineReq hits
system.cpu.dcache.WriteLineReq_misses::.cpu.data          545                       # number of WriteLineReq misses
system.cpu.dcache.WriteLineReq_misses::total          545                       # number of WriteLineReq misses
system.cpu.dcache.WriteLineReq_miss_latency::.cpu.data     17169000                       # number of WriteLineReq miss cycles
system.cpu.dcache.WriteLineReq_miss_latency::total     17169000                       # number of WriteLineReq miss cycles
system.cpu.dcache.WriteLineReq_accesses::.cpu.data          564                       # number of WriteLineReq accesses(hits+misses)
system.cpu.dcache.WriteLineReq_accesses::total          564                       # number of WriteLineReq accesses(hits+misses)
system.cpu.dcache.WriteLineReq_miss_rate::.cpu.data     0.966312                       # miss rate for WriteLineReq accesses
system.cpu.dcache.WriteLineReq_miss_rate::total     0.966312                       # miss rate for WriteLineReq accesses
system.cpu.dcache.WriteLineReq_avg_miss_latency::.cpu.data 31502.752294                       # average WriteLineReq miss latency
system.cpu.dcache.WriteLineReq_avg_miss_latency::total 31502.752294                       # average WriteLineReq miss latency
system.cpu.dcache.WriteLineReq_mshr_misses::.cpu.data          545                       # number of WriteLineReq MSHR misses
system.cpu.dcache.WriteLineReq_mshr_misses::total          545                       # number of WriteLineReq MSHR misses
system.cpu.dcache.WriteLineReq_mshr_miss_latency::.cpu.data     16624000                       # number of WriteLineReq MSHR miss cycles
system.cpu.dcache.WriteLineReq_mshr_miss_latency::total     16624000                       # number of WriteLineReq MSHR miss cycles
system.cpu.dcache.WriteLineReq_mshr_miss_rate::.cpu.data     0.966312                       # mshr miss rate for WriteLineReq accesses
system.cpu.dcache.WriteLineReq_mshr_miss_rate::total     0.966312                       # mshr miss rate for WriteLineReq accesses
system.cpu.dcache.WriteLineReq_avg_mshr_miss_latency::.cpu.data 30502.752294                       # average WriteLineReq mshr miss latency
system.cpu.dcache.WriteLineReq_avg_mshr_miss_latency::total 30502.752294                       # average WriteLineReq mshr miss latency
system.cpu.dcache.LoadLockedReq_hits::.cpu.data           48                       # number of LoadLockedReq hits
system.cpu.dcache.LoadLockedReq_hits::total           48                       # number of LoadLockedReq hits
system.cpu.dcache.LoadLockedReq_accesses::.cpu.data           48                       # number of LoadLockedReq accesses(hits+misses)
system.cpu.dcache.LoadLockedReq_accesses::total           48                       # number of LoadLockedReq accesses(hits+misses)
system.cpu.dcache.StoreCondReq_hits::.cpu.data           48                       # number of StoreCondReq hits
system.cpu.dcache.StoreCondReq_hits::total           48                       # number of StoreCondReq hits
system.cpu.dcache.StoreCondReq_accesses::.cpu.data           48                       # number of StoreCondReq accesses(hits+misses)
system.cpu.dcache.StoreCondReq_accesses::total           48                       # number of StoreCondReq accesses(hits+misses)
system.cpu.dcache.power_state.pwrStateResidencyTicks::UNDEFINED  82760532500                       # Cumulative time (in ticks) in various power states
system.cpu.dcache.tags.tagsinuse          1016.988869                       # Cycle average of tags in use
system.cpu.dcache.tags.total_refs            31820286                       # Total number of references to valid blocks.
system.cpu.dcache.tags.sampled_refs             32529                       # Sample count of references to valid blocks.
system.cpu.dcache.tags.avg_refs            978.212856                       # Average number of references to valid blocks.
system.cpu.dcache.tags.warmup_cycle            177500                       # Cycle when the warmup percentage was hit.
system.cpu.dcache.tags.occ_blocks::.cpu.data  1016.988869                       # Average occupied blocks per requestor
system.cpu.dcache.tags.occ_percent::.cpu.data     0.993153                       # Average percentage of cache occupancy
system.cpu.dcache.tags.occ_percent::total     0.993153                       # Average percentage of cache occupancy
system.cpu.dcache.tags.occ_task_id_blocks::1024         1020                       # Occupied blocks per task id
system.cpu.dcache.tags.age_task_id_blocks_1024::0            4                       # Occupied blocks per task id
system.cpu.dcache.tags.age_task_id_blocks_1024::4         1016                       # Occupied blocks per task id
system.cpu.dcache.tags.occ_task_id_percent::1024     0.996094                       # Percentage of cache occupancy per task id
system.cpu.dcache.tags.tag_accesses          63674845                       # Number of tag accesses
system.cpu.dcache.tags.data_accesses         63674845                       # Number of data accesses
system.cpu.dcache.tags.power_state.pwrStateResidencyTicks::UNDEFINED  82760532500                       # Cumulative time (in ticks) in various power states
system.cpu.power_state.pwrStateResidencyTicks::ON  82760532500                       # Cumulative time (in ticks) in various power states
system.cpu.itb.walker.power_state.pwrStateResidencyTicks::UNDEFINED  82760532500                       # Cumulative time (in ticks) in various power states
system.cpu.itb.stage2_mmu.stage2_tlb.walker.power_state.pwrStateResidencyTicks::UNDEFINED  82760532500                       # Cumulative time (in ticks) in various power states

---------- End Simulation Statistics   ----------
