
---------- Begin Simulation Statistics ----------
final_tick                                 2927518000                       # Number of ticks from beginning of simulation (restored from checkpoints and never reset)
host_inst_rate                                 143883                       # Simulator instruction rate (inst/s)
host_mem_usage                                 867224                       # Number of bytes of host memory used
host_op_rate                                   247762                       # Simulator op (including micro ops) rate (op/s)
host_seconds                                     9.48                       # Real time elapsed on the host
host_tick_rate                              308920802                       # Simulator tick rate (ticks/s)
sim_freq                                 1000000000000                       # Frequency of simulated ticks
sim_insts                                     1363495                       # Number of instructions simulated
sim_ops                                       2347936                       # Number of ops (including micro ops) simulated
sim_seconds                                  0.002928                       # Number of seconds simulated
sim_ticks                                  2927518000                       # Number of ticks simulated
system.cpu.branchPred.BTBCorrect                    0                       # Number of correct BTB predictions (this stat may not work properly.
system.cpu.branchPred.BTBHitPct                   nan                       # BTB Hit Percentage
system.cpu.branchPred.BTBHits                       0                       # Number of BTB hits
system.cpu.branchPred.BTBLookups                    0                       # Number of BTB lookups
system.cpu.branchPred.RASInCorrect                  0                       # Number of incorrect RAS predictions.
system.cpu.branchPred.condIncorrect                58                       # Number of conditional branches incorrect
system.cpu.branchPred.condPredicted                67                       # Number of conditional branches predicted
system.cpu.branchPred.indirectHits                  1                       # Number of indirect target hits.
system.cpu.branchPred.indirectLookups              51                       # Number of indirect predictor lookups.
system.cpu.branchPred.indirectMisses               50                       # Number of indirect misses.
system.cpu.branchPred.lookups                      67                       # Number of BP lookups
system.cpu.branchPred.usedRAS                       0                       # Number of times the RAS was used to get a target.
system.cpu.branchPredindirectMispredicted           43                       # Number of mispredicted indirect branches.
system.cpu.committedInsts                     1363495                       # Number of instructions committed
system.cpu.committedOps                       2347936                       # Number of ops (including micro ops) committed
system.cpu.cpi                               4.294138                       # CPI: cycles per instruction
system.cpu.discardedOps                        328498                       # Number of ops (including micro ops) which were discarded before commit
system.cpu.dtb.rdAccesses                      386910                       # TLB accesses on read requests
system.cpu.dtb.rdMisses                          1479                       # TLB misses on read requests
system.cpu.dtb.wrAccesses                      128964                       # TLB accesses on write requests
system.cpu.dtb.wrMisses                            67                       # TLB misses on write requests
system.cpu.fetch2.amo_instructions                  0                       # Number of memory atomic instructions successfully decoded
system.cpu.fetch2.fp_instructions                   0                       # Number of floating point instructions successfully decoded
system.cpu.fetch2.int_instructions                 35                       # Number of integer instructions successfully decoded
system.cpu.fetch2.load_instructions                 0                       # Number of memory load instructions successfully decoded
system.cpu.fetch2.store_instructions                0                       # Number of memory store instructions successfully decoded
system.cpu.fetch2.vec_instructions                  0                       # Number of SIMD instructions successfully decoded
system.cpu.idleCycles                         1403425                       # Total number of cycles that the object has spent stopped
system.cpu.ipc                               0.232876                       # IPC: instructions per cycle
system.cpu.itb.rdAccesses                           0                       # TLB accesses on read requests
system.cpu.itb.rdMisses                             0                       # TLB misses on read requests
system.cpu.itb.wrAccesses                      420135                       # TLB accesses on write requests
system.cpu.itb.wrMisses                           273                       # TLB misses on write requests
system.cpu.numCycles                          5855036                       # number of cpu cycles simulated
system.cpu.numFetchSuspends                         0                       # Number of times Execute suspended instruction fetching
system.cpu.numWorkItemsCompleted                    0                       # number of work items this cpu completed
system.cpu.numWorkItemsStarted                      0                       # number of work items this cpu started
system.cpu.op_class_0::No_OpClass               16939      0.72%      0.72% # Class of committed instruction
system.cpu.op_class_0::IntAlu                 1841327     78.42%     79.14% # Class of committed instruction
system.cpu.op_class_0::IntMult                   1913      0.08%     79.23% # Class of committed instruction
system.cpu.op_class_0::IntDiv                   24008      1.02%     80.25% # Class of committed instruction
system.cpu.op_class_0::FloatAdd                   678      0.03%     80.28% # Class of committed instruction
system.cpu.op_class_0::FloatCmp                     0      0.00%     80.28% # Class of committed instruction
system.cpu.op_class_0::FloatCvt                  1232      0.05%     80.33% # Class of committed instruction
system.cpu.op_class_0::FloatMult                   40      0.00%     80.33% # Class of committed instruction
system.cpu.op_class_0::FloatMultAcc                 0      0.00%     80.33% # Class of committed instruction
system.cpu.op_class_0::FloatDiv                     0      0.00%     80.33% # Class of committed instruction
system.cpu.op_class_0::FloatMisc                    0      0.00%     80.33% # Class of committed instruction
system.cpu.op_class_0::FloatSqrt                    0      0.00%     80.33% # Class of committed instruction
system.cpu.op_class_0::SimdAdd                     16      0.00%     80.33% # Class of committed instruction
system.cpu.op_class_0::SimdAddAcc                   0      0.00%     80.33% # Class of committed instruction
system.cpu.op_class_0::SimdAlu                    202      0.01%     80.34% # Class of committed instruction
system.cpu.op_class_0::SimdCmp                      0      0.00%     80.34% # Class of committed instruction
system.cpu.op_class_0::SimdCvt                    164      0.01%     80.35% # Class of committed instruction
system.cpu.op_class_0::SimdMisc                   195      0.01%     80.36% # Class of committed instruction
system.cpu.op_class_0::SimdMult                     0      0.00%     80.36% # Class of committed instruction
system.cpu.op_class_0::SimdMultAcc                  0      0.00%     80.36% # Class of committed instruction
system.cpu.op_class_0::SimdShift                   24      0.00%     80.36% # Class of committed instruction
system.cpu.op_class_0::SimdShiftAcc                 0      0.00%     80.36% # Class of committed instruction
system.cpu.op_class_0::SimdDiv                      0      0.00%     80.36% # Class of committed instruction
system.cpu.op_class_0::SimdSqrt                     0      0.00%     80.36% # Class of committed instruction
system.cpu.op_class_0::SimdFloatAdd                60      0.00%     80.36% # Class of committed instruction
system.cpu.op_class_0::SimdFloatAlu                 0      0.00%     80.36% # Class of committed instruction
system.cpu.op_class_0::SimdFloatCmp                 0      0.00%     80.36% # Class of committed instruction
system.cpu.op_class_0::SimdFloatCvt                40      0.00%     80.36% # Class of committed instruction
system.cpu.op_class_0::SimdFloatDiv                20      0.00%     80.36% # Class of committed instruction
system.cpu.op_class_0::SimdFloatMisc                0      0.00%     80.36% # Class of committed instruction
system.cpu.op_class_0::SimdFloatMult               40      0.00%     80.36% # Class of committed instruction
system.cpu.op_class_0::SimdFloatMultAcc             0      0.00%     80.36% # Class of committed instruction
system.cpu.op_class_0::SimdFloatSqrt                0      0.00%     80.36% # Class of committed instruction
system.cpu.op_class_0::SimdReduceAdd                0      0.00%     80.36% # Class of committed instruction
system.cpu.op_class_0::SimdReduceAlu                0      0.00%     80.36% # Class of committed instruction
system.cpu.op_class_0::SimdReduceCmp                0      0.00%     80.36% # Class of committed instruction
system.cpu.op_class_0::SimdFloatReduceAdd            0      0.00%     80.36% # Class of committed instruction
system.cpu.op_class_0::SimdFloatReduceCmp            0      0.00%     80.36% # Class of committed instruction
system.cpu.op_class_0::SimdAes                      0      0.00%     80.36% # Class of committed instruction
system.cpu.op_class_0::SimdAesMix                   0      0.00%     80.36% # Class of committed instruction
system.cpu.op_class_0::SimdSha1Hash                 0      0.00%     80.36% # Class of committed instruction
system.cpu.op_class_0::SimdSha1Hash2                0      0.00%     80.36% # Class of committed instruction
system.cpu.op_class_0::SimdSha256Hash               0      0.00%     80.36% # Class of committed instruction
system.cpu.op_class_0::SimdSha256Hash2              0      0.00%     80.36% # Class of committed instruction
system.cpu.op_class_0::SimdShaSigma2                0      0.00%     80.36% # Class of committed instruction
system.cpu.op_class_0::SimdShaSigma3                0      0.00%     80.36% # Class of committed instruction
system.cpu.op_class_0::SimdPredAlu                  0      0.00%     80.36% # Class of committed instruction
system.cpu.op_class_0::MemRead                 333186     14.19%     94.55% # Class of committed instruction
system.cpu.op_class_0::MemWrite                122519      5.22%     99.77% # Class of committed instruction
system.cpu.op_class_0::FloatMemRead              2768      0.12%     99.89% # Class of committed instruction
system.cpu.op_class_0::FloatMemWrite             2565      0.11%    100.00% # Class of committed instruction
system.cpu.op_class_0::IprAccess                    0      0.00%    100.00% # Class of committed instruction
system.cpu.op_class_0::InstPrefetch                 0      0.00%    100.00% # Class of committed instruction
system.cpu.op_class_0::total                  2347936                       # Class of committed instruction
system.cpu.tickCycles                         4451611                       # Number of cycles that the object actually ticked
system.cpu.workload.numSyscalls                    58                       # Number of system calls
system.membus.snoop_filter.hit_multi_requests            0                       # Number of requests hitting in the snoop filter with multiple (>1) holders of the requested data.
system.membus.snoop_filter.hit_multi_snoops            0                       # Number of snoops hitting in the snoop filter with multiple (>1) holders of the requested data.
system.membus.snoop_filter.hit_single_requests            0                       # Number of requests hitting in the snoop filter with a single holder of the requested data.
system.membus.snoop_filter.hit_single_snoops            0                       # Number of snoops hitting in the snoop filter with a single holder of the requested data.
system.membus.snoop_filter.tot_requests          8968                       # Total number of requests made to the snoop filter.
system.membus.snoop_filter.tot_snoops               0                       # Total number of snoops made to the snoop filter.
system.tol2bus.snoop_filter.hit_multi_requests            6                       # Number of requests hitting in the snoop filter with multiple (>1) holders of the requested data.
system.tol2bus.snoop_filter.hit_multi_snoops            0                       # Number of snoops hitting in the snoop filter with multiple (>1) holders of the requested data.
system.tol2bus.snoop_filter.hit_single_requests        11790                       # Number of requests hitting in the snoop filter with a single holder of the requested data.
system.tol2bus.snoop_filter.hit_single_snoops            0                       # Number of snoops hitting in the snoop filter with a single holder of the requested data.
system.tol2bus.snoop_filter.tot_requests        24861                       # Total number of requests made to the snoop filter.
system.tol2bus.snoop_filter.tot_snoops              0                       # Total number of snoops made to the snoop filter.
system.membus.trans_dist::ReadResp               7886                       # Transaction distribution
system.membus.trans_dist::ReadExReq              1082                       # Transaction distribution
system.membus.trans_dist::ReadExResp             1082                       # Transaction distribution
system.membus.trans_dist::ReadSharedReq          7886                       # Transaction distribution
system.membus.pkt_count_system.l2.mem_side::system.mem_ctrls.port        17936                       # Packet count per connected master and slave (bytes)
system.membus.pkt_count_system.l2.mem_side::total        17936                       # Packet count per connected master and slave (bytes)
system.membus.pkt_count::total                  17936                       # Packet count per connected master and slave (bytes)
system.membus.pkt_size_system.l2.mem_side::system.mem_ctrls.port       573952                       # Cumulative packet size per connected master and slave (bytes)
system.membus.pkt_size_system.l2.mem_side::total       573952                       # Cumulative packet size per connected master and slave (bytes)
system.membus.pkt_size::total                  573952                       # Cumulative packet size per connected master and slave (bytes)
system.membus.snoops                                0                       # Total snoops (count)
system.membus.snoopTraffic                          0                       # Total snoop traffic (bytes)
system.membus.snoop_fanout::samples              8968                       # Request fanout histogram
system.membus.snoop_fanout::mean                    0                       # Request fanout histogram
system.membus.snoop_fanout::stdev                   0                       # Request fanout histogram
system.membus.snoop_fanout::underflows              0      0.00%      0.00% # Request fanout histogram
system.membus.snoop_fanout::0                    8968    100.00%    100.00% # Request fanout histogram
system.membus.snoop_fanout::1                       0      0.00%    100.00% # Request fanout histogram
system.membus.snoop_fanout::overflows               0      0.00%    100.00% # Request fanout histogram
system.membus.snoop_fanout::min_value               0                       # Request fanout histogram
system.membus.snoop_fanout::max_value               0                       # Request fanout histogram
system.membus.snoop_fanout::total                8968                       # Request fanout histogram
system.membus.reqLayer2.occupancy            11063500                       # Layer occupancy (ticks)
system.membus.reqLayer2.utilization               0.4                       # Layer utilization (%)
system.membus.respLayer1.occupancy           47968750                       # Layer occupancy (ticks)
system.membus.respLayer1.utilization              1.6                       # Layer utilization (%)
system.membus.power_state.pwrStateResidencyTicks::UNDEFINED   2927518000                       # Cumulative time (in ticks) in various power states
system.tol2bus.trans_dist::ReadResp             11771                       # Transaction distribution
system.tol2bus.trans_dist::WritebackDirty         2260                       # Transaction distribution
system.tol2bus.trans_dist::WritebackClean         2224                       # Transaction distribution
system.tol2bus.trans_dist::CleanEvict            7306                       # Transaction distribution
system.tol2bus.trans_dist::ReadExReq             1299                       # Transaction distribution
system.tol2bus.trans_dist::ReadExResp            1299                       # Transaction distribution
system.tol2bus.trans_dist::ReadCleanReq          2481                       # Transaction distribution
system.tol2bus.trans_dist::ReadSharedReq         9291                       # Transaction distribution
system.tol2bus.pkt_count_system.cpu.icache.mem_side::system.l2.cpu_side         7185                       # Packet count per connected master and slave (bytes)
system.tol2bus.pkt_count_system.cpu.dcache.mem_side::system.l2.cpu_side        30746                       # Packet count per connected master and slave (bytes)
system.tol2bus.pkt_count::total                 37931                       # Packet count per connected master and slave (bytes)
system.tol2bus.pkt_size_system.cpu.icache.mem_side::system.l2.cpu_side       301056                       # Cumulative packet size per connected master and slave (bytes)
system.tol2bus.pkt_size_system.cpu.dcache.mem_side::system.l2.cpu_side       822400                       # Cumulative packet size per connected master and slave (bytes)
system.tol2bus.pkt_size::total                1123456                       # Cumulative packet size per connected master and slave (bytes)
system.tol2bus.snoops                               0                       # Total snoops (count)
system.tol2bus.snoopTraffic                         0                       # Total snoop traffic (bytes)
system.tol2bus.snoop_fanout::samples            13071                       # Request fanout histogram
system.tol2bus.snoop_fanout::mean            0.000459                       # Request fanout histogram
system.tol2bus.snoop_fanout::stdev           0.021421                       # Request fanout histogram
system.tol2bus.snoop_fanout::underflows             0      0.00%      0.00% # Request fanout histogram
system.tol2bus.snoop_fanout::0                  13065     99.95%     99.95% # Request fanout histogram
system.tol2bus.snoop_fanout::1                      6      0.05%    100.00% # Request fanout histogram
system.tol2bus.snoop_fanout::2                      0      0.00%    100.00% # Request fanout histogram
system.tol2bus.snoop_fanout::3                      0      0.00%    100.00% # Request fanout histogram
system.tol2bus.snoop_fanout::4                      0      0.00%    100.00% # Request fanout histogram
system.tol2bus.snoop_fanout::overflows              0      0.00%    100.00% # Request fanout histogram
system.tol2bus.snoop_fanout::min_value              0                       # Request fanout histogram
system.tol2bus.snoop_fanout::max_value              1                       # Request fanout histogram
system.tol2bus.snoop_fanout::total              13071                       # Request fanout histogram
system.tol2bus.reqLayer0.occupancy           16914500                       # Layer occupancy (ticks)
system.tol2bus.reqLayer0.utilization              0.6                       # Layer utilization (%)
system.tol2bus.respLayer1.occupancy          15885000                       # Layer occupancy (ticks)
system.tol2bus.respLayer1.utilization             0.5                       # Layer utilization (%)
system.tol2bus.respLayer0.occupancy           3720000                       # Layer occupancy (ticks)
system.tol2bus.respLayer0.utilization             0.1                       # Layer utilization (%)
system.tol2bus.power_state.pwrStateResidencyTicks::UNDEFINED   2927518000                       # Cumulative time (in ticks) in various power states
system.voltage_domain.voltage                       1                       # Voltage in Volts
system.clk_domain.clock                          1000                       # Clock period in ticks
system.l2.demand_hits::.cpu.inst                  872                       # number of demand (read+write) hits
system.l2.demand_hits::.cpu.data                 3231                       # number of demand (read+write) hits
system.l2.demand_hits::total                     4103                       # number of demand (read+write) hits
system.l2.overall_hits::.cpu.inst                 872                       # number of overall hits
system.l2.overall_hits::.cpu.data                3231                       # number of overall hits
system.l2.overall_hits::total                    4103                       # number of overall hits
system.l2.demand_misses::.cpu.inst               1609                       # number of demand (read+write) misses
system.l2.demand_misses::.cpu.data               7359                       # number of demand (read+write) misses
system.l2.demand_misses::total                   8968                       # number of demand (read+write) misses
system.l2.overall_misses::.cpu.inst              1609                       # number of overall misses
system.l2.overall_misses::.cpu.data              7359                       # number of overall misses
system.l2.overall_misses::total                  8968                       # number of overall misses
system.l2.demand_miss_latency::.cpu.inst    122326000                       # number of demand (read+write) miss cycles
system.l2.demand_miss_latency::.cpu.data    586475500                       # number of demand (read+write) miss cycles
system.l2.demand_miss_latency::total        708801500                       # number of demand (read+write) miss cycles
system.l2.overall_miss_latency::.cpu.inst    122326000                       # number of overall miss cycles
system.l2.overall_miss_latency::.cpu.data    586475500                       # number of overall miss cycles
system.l2.overall_miss_latency::total       708801500                       # number of overall miss cycles
system.l2.demand_accesses::.cpu.inst             2481                       # number of demand (read+write) accesses
system.l2.demand_accesses::.cpu.data            10590                       # number of demand (read+write) accesses
system.l2.demand_accesses::total                13071                       # number of demand (read+write) accesses
system.l2.overall_accesses::.cpu.inst            2481                       # number of overall (read+write) accesses
system.l2.overall_accesses::.cpu.data           10590                       # number of overall (read+write) accesses
system.l2.overall_accesses::total               13071                       # number of overall (read+write) accesses
system.l2.demand_miss_rate::.cpu.inst        0.648529                       # miss rate for demand accesses
system.l2.demand_miss_rate::.cpu.data        0.694901                       # miss rate for demand accesses
system.l2.demand_miss_rate::total            0.686099                       # miss rate for demand accesses
system.l2.overall_miss_rate::.cpu.inst       0.648529                       # miss rate for overall accesses
system.l2.overall_miss_rate::.cpu.data       0.694901                       # miss rate for overall accesses
system.l2.overall_miss_rate::total           0.686099                       # miss rate for overall accesses
system.l2.demand_avg_miss_latency::.cpu.inst 76026.103170                       # average overall miss latency
system.l2.demand_avg_miss_latency::.cpu.data 79694.999321                       # average overall miss latency
system.l2.demand_avg_miss_latency::total 79036.741748                       # average overall miss latency
system.l2.overall_avg_miss_latency::.cpu.inst 76026.103170                       # average overall miss latency
system.l2.overall_avg_miss_latency::.cpu.data 79694.999321                       # average overall miss latency
system.l2.overall_avg_miss_latency::total 79036.741748                       # average overall miss latency
system.l2.blocked_cycles::no_mshrs                  0                       # number of cycles access was blocked
system.l2.blocked_cycles::no_targets                0                       # number of cycles access was blocked
system.l2.blocked::no_mshrs                         0                       # number of cycles access was blocked
system.l2.blocked::no_targets                       0                       # number of cycles access was blocked
system.l2.avg_blocked_cycles::no_mshrs            nan                       # average number of cycles each access was blocked
system.l2.avg_blocked_cycles::no_targets          nan                       # average number of cycles each access was blocked
system.l2.demand_mshr_misses::.cpu.inst          1609                       # number of demand (read+write) MSHR misses
system.l2.demand_mshr_misses::.cpu.data          7359                       # number of demand (read+write) MSHR misses
system.l2.demand_mshr_misses::total              8968                       # number of demand (read+write) MSHR misses
system.l2.overall_mshr_misses::.cpu.inst         1609                       # number of overall MSHR misses
system.l2.overall_mshr_misses::.cpu.data         7359                       # number of overall MSHR misses
system.l2.overall_mshr_misses::total             8968                       # number of overall MSHR misses
system.l2.demand_mshr_miss_latency::.cpu.inst    106236000                       # number of demand (read+write) MSHR miss cycles
system.l2.demand_mshr_miss_latency::.cpu.data    512885500                       # number of demand (read+write) MSHR miss cycles
system.l2.demand_mshr_miss_latency::total    619121500                       # number of demand (read+write) MSHR miss cycles
system.l2.overall_mshr_miss_latency::.cpu.inst    106236000                       # number of overall MSHR miss cycles
system.l2.overall_mshr_miss_latency::.cpu.data    512885500                       # number of overall MSHR miss cycles
system.l2.overall_mshr_miss_latency::total    619121500                       # number of overall MSHR miss cycles
system.l2.demand_mshr_miss_rate::.cpu.inst     0.648529                       # mshr miss rate for demand accesses
system.l2.demand_mshr_miss_rate::.cpu.data     0.694901                       # mshr miss rate for demand accesses
system.l2.demand_mshr_miss_rate::total       0.686099                       # mshr miss rate for demand accesses
system.l2.overall_mshr_miss_rate::.cpu.inst     0.648529                       # mshr miss rate for overall accesses
system.l2.overall_mshr_miss_rate::.cpu.data     0.694901                       # mshr miss rate for overall accesses
system.l2.overall_mshr_miss_rate::total      0.686099                       # mshr miss rate for overall accesses
system.l2.demand_avg_mshr_miss_latency::.cpu.inst 66026.103170                       # average overall mshr miss latency
system.l2.demand_avg_mshr_miss_latency::.cpu.data 69694.999321                       # average overall mshr miss latency
system.l2.demand_avg_mshr_miss_latency::total 69036.741748                       # average overall mshr miss latency
system.l2.overall_avg_mshr_miss_latency::.cpu.inst 66026.103170                       # average overall mshr miss latency
system.l2.overall_avg_mshr_miss_latency::.cpu.data 69694.999321                       # average overall mshr miss latency
system.l2.overall_avg_mshr_miss_latency::total 69036.741748                       # average overall mshr miss latency
system.l2.replacements                              0                       # number of replacements
system.l2.WritebackDirty_hits::.writebacks         2260                       # number of WritebackDirty hits
system.l2.WritebackDirty_hits::total             2260                       # number of WritebackDirty hits
system.l2.WritebackDirty_accesses::.writebacks         2260                       # number of WritebackDirty accesses(hits+misses)
system.l2.WritebackDirty_accesses::total         2260                       # number of WritebackDirty accesses(hits+misses)
system.l2.WritebackClean_hits::.writebacks         2222                       # number of WritebackClean hits
system.l2.WritebackClean_hits::total             2222                       # number of WritebackClean hits
system.l2.WritebackClean_accesses::.writebacks         2222                       # number of WritebackClean accesses(hits+misses)
system.l2.WritebackClean_accesses::total         2222                       # number of WritebackClean accesses(hits+misses)
system.l2.ReadExReq_hits::.cpu.data               217                       # number of ReadExReq hits
system.l2.ReadExReq_hits::total                   217                       # number of ReadExReq hits
system.l2.ReadExReq_misses::.cpu.data            1082                       # number of ReadExReq misses
system.l2.ReadExReq_misses::total                1082                       # number of ReadExReq misses
system.l2.ReadExReq_miss_latency::.cpu.data     81387000                       # number of ReadExReq miss cycles
system.l2.ReadExReq_miss_latency::total      81387000                       # number of ReadExReq miss cycles
system.l2.ReadExReq_accesses::.cpu.data          1299                       # number of ReadExReq accesses(hits+misses)
system.l2.ReadExReq_accesses::total              1299                       # number of ReadExReq accesses(hits+misses)
system.l2.ReadExReq_miss_rate::.cpu.data     0.832948                       # miss rate for ReadExReq accesses
system.l2.ReadExReq_miss_rate::total         0.832948                       # miss rate for ReadExReq accesses
system.l2.ReadExReq_avg_miss_latency::.cpu.data 75219.038817                       # average ReadExReq miss latency
system.l2.ReadExReq_avg_miss_latency::total 75219.038817                       # average ReadExReq miss latency
system.l2.ReadExReq_mshr_misses::.cpu.data         1082                       # number of ReadExReq MSHR misses
system.l2.ReadExReq_mshr_misses::total           1082                       # number of ReadExReq MSHR misses
system.l2.ReadExReq_mshr_miss_latency::.cpu.data     70567000                       # number of ReadExReq MSHR miss cycles
system.l2.ReadExReq_mshr_miss_latency::total     70567000                       # number of ReadExReq MSHR miss cycles
system.l2.ReadExReq_mshr_miss_rate::.cpu.data     0.832948                       # mshr miss rate for ReadExReq accesses
system.l2.ReadExReq_mshr_miss_rate::total     0.832948                       # mshr miss rate for ReadExReq accesses
system.l2.ReadExReq_avg_mshr_miss_latency::.cpu.data 65219.038817                       # average ReadExReq mshr miss latency
system.l2.ReadExReq_avg_mshr_miss_latency::total 65219.038817                       # average ReadExReq mshr miss latency
system.l2.ReadCleanReq_hits::.cpu.inst            872                       # number of ReadCleanReq hits
system.l2.ReadCleanReq_hits::total                872                       # number of ReadCleanReq hits
system.l2.ReadCleanReq_misses::.cpu.inst         1609                       # number of ReadCleanReq misses
system.l2.ReadCleanReq_misses::total             1609                       # number of ReadCleanReq misses
system.l2.ReadCleanReq_miss_latency::.cpu.inst    122326000                       # number of ReadCleanReq miss cycles
system.l2.ReadCleanReq_miss_latency::total    122326000                       # number of ReadCleanReq miss cycles
system.l2.ReadCleanReq_accesses::.cpu.inst         2481                       # number of ReadCleanReq accesses(hits+misses)
system.l2.ReadCleanReq_accesses::total           2481                       # number of ReadCleanReq accesses(hits+misses)
system.l2.ReadCleanReq_miss_rate::.cpu.inst     0.648529                       # miss rate for ReadCleanReq accesses
system.l2.ReadCleanReq_miss_rate::total      0.648529                       # miss rate for ReadCleanReq accesses
system.l2.ReadCleanReq_avg_miss_latency::.cpu.inst 76026.103170                       # average ReadCleanReq miss latency
system.l2.ReadCleanReq_avg_miss_latency::total 76026.103170                       # average ReadCleanReq miss latency
system.l2.ReadCleanReq_mshr_misses::.cpu.inst         1609                       # number of ReadCleanReq MSHR misses
system.l2.ReadCleanReq_mshr_misses::total         1609                       # number of ReadCleanReq MSHR misses
system.l2.ReadCleanReq_mshr_miss_latency::.cpu.inst    106236000                       # number of ReadCleanReq MSHR miss cycles
system.l2.ReadCleanReq_mshr_miss_latency::total    106236000                       # number of ReadCleanReq MSHR miss cycles
system.l2.ReadCleanReq_mshr_miss_rate::.cpu.inst     0.648529                       # mshr miss rate for ReadCleanReq accesses
system.l2.ReadCleanReq_mshr_miss_rate::total     0.648529                       # mshr miss rate for ReadCleanReq accesses
system.l2.ReadCleanReq_avg_mshr_miss_latency::.cpu.inst 66026.103170                       # average ReadCleanReq mshr miss latency
system.l2.ReadCleanReq_avg_mshr_miss_latency::total 66026.103170                       # average ReadCleanReq mshr miss latency
system.l2.ReadSharedReq_hits::.cpu.data          3014                       # number of ReadSharedReq hits
system.l2.ReadSharedReq_hits::total              3014                       # number of ReadSharedReq hits
system.l2.ReadSharedReq_misses::.cpu.data         6277                       # number of ReadSharedReq misses
system.l2.ReadSharedReq_misses::total            6277                       # number of ReadSharedReq misses
system.l2.ReadSharedReq_miss_latency::.cpu.data    505088500                       # number of ReadSharedReq miss cycles
system.l2.ReadSharedReq_miss_latency::total    505088500                       # number of ReadSharedReq miss cycles
system.l2.ReadSharedReq_accesses::.cpu.data         9291                       # number of ReadSharedReq accesses(hits+misses)
system.l2.ReadSharedReq_accesses::total          9291                       # number of ReadSharedReq accesses(hits+misses)
system.l2.ReadSharedReq_miss_rate::.cpu.data     0.675600                       # miss rate for ReadSharedReq accesses
system.l2.ReadSharedReq_miss_rate::total     0.675600                       # miss rate for ReadSharedReq accesses
system.l2.ReadSharedReq_avg_miss_latency::.cpu.data 80466.544528                       # average ReadSharedReq miss latency
system.l2.ReadSharedReq_avg_miss_latency::total 80466.544528                       # average ReadSharedReq miss latency
system.l2.ReadSharedReq_mshr_misses::.cpu.data         6277                       # number of ReadSharedReq MSHR misses
system.l2.ReadSharedReq_mshr_misses::total         6277                       # number of ReadSharedReq MSHR misses
system.l2.ReadSharedReq_mshr_miss_latency::.cpu.data    442318500                       # number of ReadSharedReq MSHR miss cycles
system.l2.ReadSharedReq_mshr_miss_latency::total    442318500                       # number of ReadSharedReq MSHR miss cycles
system.l2.ReadSharedReq_mshr_miss_rate::.cpu.data     0.675600                       # mshr miss rate for ReadSharedReq accesses
system.l2.ReadSharedReq_mshr_miss_rate::total     0.675600                       # mshr miss rate for ReadSharedReq accesses
system.l2.ReadSharedReq_avg_mshr_miss_latency::.cpu.data 70466.544528                       # average ReadSharedReq mshr miss latency
system.l2.ReadSharedReq_avg_mshr_miss_latency::total 70466.544528                       # average ReadSharedReq mshr miss latency
system.l2.power_state.pwrStateResidencyTicks::UNDEFINED   2927518000                       # Cumulative time (in ticks) in various power states
system.l2.tags.tagsinuse                  4945.795987                       # Cycle average of tags in use
system.l2.tags.total_refs                           0                       # Total number of references to valid blocks.
system.l2.tags.sampled_refs                         0                       # Sample count of references to valid blocks.
system.l2.tags.avg_refs                           nan                       # Average number of references to valid blocks.
system.l2.tags.warmup_cycle                     77000                       # Cycle when the warmup percentage was hit.
system.l2.tags.occ_blocks::.cpu.inst       764.089702                       # Average occupied blocks per requestor
system.l2.tags.occ_blocks::.cpu.data      4181.706284                       # Average occupied blocks per requestor
system.l2.tags.occ_percent::.cpu.inst        0.023318                       # Average percentage of cache occupancy
system.l2.tags.occ_percent::.cpu.data        0.127616                       # Average percentage of cache occupancy
system.l2.tags.occ_percent::total            0.150934                       # Average percentage of cache occupancy
system.l2.tags.occ_task_id_blocks::1024          8968                       # Occupied blocks per task id
system.l2.tags.age_task_id_blocks_1024::0            3                       # Occupied blocks per task id
system.l2.tags.age_task_id_blocks_1024::1          460                       # Occupied blocks per task id
system.l2.tags.age_task_id_blocks_1024::2         2644                       # Occupied blocks per task id
system.l2.tags.age_task_id_blocks_1024::3         5861                       # Occupied blocks per task id
system.l2.tags.occ_task_id_percent::1024     0.273682                       # Percentage of cache occupancy per task id
system.l2.tags.tag_accesses                    207808                       # Number of tag accesses
system.l2.tags.data_accesses                   207808                       # Number of data accesses
system.l2.tags.power_state.pwrStateResidencyTicks::UNDEFINED   2927518000                       # Cumulative time (in ticks) in various power states
system.cpu_voltage_domain.voltage                   1                       # Voltage in Volts
system.mem_ctrls.bytes_read::.cpu.inst         102976                       # Number of bytes read from this memory
system.mem_ctrls.bytes_read::.cpu.data         470976                       # Number of bytes read from this memory
system.mem_ctrls.bytes_read::total             573952                       # Number of bytes read from this memory
system.mem_ctrls.bytes_inst_read::.cpu.inst       102976                       # Number of instructions bytes read from this memory
system.mem_ctrls.bytes_inst_read::total        102976                       # Number of instructions bytes read from this memory
system.mem_ctrls.num_reads::.cpu.inst            1609                       # Number of read requests responded to by this memory
system.mem_ctrls.num_reads::.cpu.data            7359                       # Number of read requests responded to by this memory
system.mem_ctrls.num_reads::total                8968                       # Number of read requests responded to by this memory
system.mem_ctrls.bw_read::.cpu.inst          35175189                       # Total read bandwidth from this memory (bytes/s)
system.mem_ctrls.bw_read::.cpu.data         160878943                       # Total read bandwidth from this memory (bytes/s)
system.mem_ctrls.bw_read::total             196054132                       # Total read bandwidth from this memory (bytes/s)
system.mem_ctrls.bw_inst_read::.cpu.inst     35175189                       # Instruction read bandwidth from this memory (bytes/s)
system.mem_ctrls.bw_inst_read::total         35175189                       # Instruction read bandwidth from this memory (bytes/s)
system.mem_ctrls.bw_total::.cpu.inst         35175189                       # Total bandwidth to/from this memory (bytes/s)
system.mem_ctrls.bw_total::.cpu.data        160878943                       # Total bandwidth to/from this memory (bytes/s)
system.mem_ctrls.bw_total::total            196054132                       # Total bandwidth to/from this memory (bytes/s)
system.mem_ctrls.avgPriority_.cpu.inst::samples      1609.00                       # Average QoS priority value for accepted requests
system.mem_ctrls.avgPriority_.cpu.data::samples      7359.00                       # Average QoS priority value for accepted requests
system.mem_ctrls.priorityMinLatency      0.000000018750                       # per QoS priority minimum request to response latency (s)
system.mem_ctrls.priorityMaxLatency      0.000000578000                       # per QoS priority maximum request to response latency (s)
system.mem_ctrls.numReadWriteTurnArounds            0                       # Number of turnarounds from READ to WRITE
system.mem_ctrls.numWriteReadTurnArounds            0                       # Number of turnarounds from WRITE to READ
system.mem_ctrls.numStayReadState               18681                       # Number of times bus staying in READ state
system.mem_ctrls.numStayWriteState                  0                       # Number of times bus staying in WRITE state
system.mem_ctrls.readReqs                        8968                       # Number of read requests accepted
system.mem_ctrls.writeReqs                          0                       # Number of write requests accepted
system.mem_ctrls.readBursts                      8968                       # Number of DRAM read bursts, including those serviced by the write queue
system.mem_ctrls.writeBursts                        0                       # Number of DRAM write bursts, including those merged in the write queue
system.mem_ctrls.servicedByWrQ                      0                       # Number of DRAM read bursts serviced by the write queue
system.mem_ctrls.mergedWrBursts                     0                       # Number of DRAM write bursts merged with an existing one
system.mem_ctrls.neitherReadNorWriteReqs            0                       # Number of requests that are neither read nor write
system.mem_ctrls.perBankRdBursts::0               677                       # Per bank write bursts
system.mem_ctrls.perBankRdBursts::1               497                       # Per bank write bursts
system.mem_ctrls.perBankRdBursts::2               591                       # Per bank write bursts
system.mem_ctrls.perBankRdBursts::3               629                       # Per bank write bursts
system.mem_ctrls.perBankRdBursts::4               659                       # Per bank write bursts
system.mem_ctrls.perBankRdBursts::5               569                       # Per bank write bursts
system.mem_ctrls.perBankRdBursts::6               454                       # Per bank write bursts
system.mem_ctrls.perBankRdBursts::7               411                       # Per bank write bursts
system.mem_ctrls.perBankRdBursts::8               466                       # Per bank write bursts
system.mem_ctrls.perBankRdBursts::9               458                       # Per bank write bursts
system.mem_ctrls.perBankRdBursts::10              450                       # Per bank write bursts
system.mem_ctrls.perBankRdBursts::11              610                       # Per bank write bursts
system.mem_ctrls.perBankRdBursts::12              556                       # Per bank write bursts
system.mem_ctrls.perBankRdBursts::13              597                       # Per bank write bursts
system.mem_ctrls.perBankRdBursts::14              730                       # Per bank write bursts
system.mem_ctrls.perBankRdBursts::15              614                       # Per bank write bursts
system.mem_ctrls.perBankWrBursts::0                 0                       # Per bank write bursts
system.mem_ctrls.perBankWrBursts::1                 0                       # Per bank write bursts
system.mem_ctrls.perBankWrBursts::2                 0                       # Per bank write bursts
system.mem_ctrls.perBankWrBursts::3                 0                       # Per bank write bursts
system.mem_ctrls.perBankWrBursts::4                 0                       # Per bank write bursts
system.mem_ctrls.perBankWrBursts::5                 0                       # Per bank write bursts
system.mem_ctrls.perBankWrBursts::6                 0                       # Per bank write bursts
system.mem_ctrls.perBankWrBursts::7                 0                       # Per bank write bursts
system.mem_ctrls.perBankWrBursts::8                 0                       # Per bank write bursts
system.mem_ctrls.perBankWrBursts::9                 0                       # Per bank write bursts
system.mem_ctrls.perBankWrBursts::10                0                       # Per bank write bursts
system.mem_ctrls.perBankWrBursts::11                0                       # Per bank write bursts
system.mem_ctrls.perBankWrBursts::12                0                       # Per bank write bursts
system.mem_ctrls.perBankWrBursts::13                0                       # Per bank write bursts
system.mem_ctrls.perBankWrBursts::14                0                       # Per bank write bursts
system.mem_ctrls.perBankWrBursts::15                0                       # Per bank write bursts
system.mem_ctrls.avgRdQLen                       1.01                       # Average read queue length when enqueuing
system.mem_ctrls.avgWrQLen                       0.00                       # Average write queue length when enqueuing
system.mem_ctrls.totQLat                     82502250                       # Total ticks spent queuing
system.mem_ctrls.totBusLat                   44840000                       # Total ticks spent in databus transfers
system.mem_ctrls.totMemAccLat               250652250                       # Total ticks spent from burst creation until serviced by the DRAM
system.mem_ctrls.avgQLat                      9199.63                       # Average queueing delay per DRAM burst
system.mem_ctrls.avgBusLat                    5000.00                       # Average bus latency per DRAM burst
system.mem_ctrls.avgMemAccLat                27949.63                       # Average memory access latency per DRAM burst
system.mem_ctrls.numRdRetry                         0                       # Number of times read queue was full causing retry
system.mem_ctrls.numWrRetry                         0                       # Number of times write queue was full causing retry
system.mem_ctrls.readRowHits                     5919                       # Number of row buffer hits during reads
system.mem_ctrls.writeRowHits                       0                       # Number of row buffer hits during writes
system.mem_ctrls.readRowHitRate                 66.00                       # Row buffer hit rate for reads
system.mem_ctrls.writeRowHitRate                  nan                       # Row buffer hit rate for writes
system.mem_ctrls.readPktSize::0                     0                       # Read request sizes (log2)
system.mem_ctrls.readPktSize::1                     0                       # Read request sizes (log2)
system.mem_ctrls.readPktSize::2                     0                       # Read request sizes (log2)
system.mem_ctrls.readPktSize::3                     0                       # Read request sizes (log2)
system.mem_ctrls.readPktSize::4                     0                       # Read request sizes (log2)
system.mem_ctrls.readPktSize::5                     0                       # Read request sizes (log2)
system.mem_ctrls.readPktSize::6                  8968                       # Read request sizes (log2)
system.mem_ctrls.writePktSize::0                    0                       # Write request sizes (log2)
system.mem_ctrls.writePktSize::1                    0                       # Write request sizes (log2)
system.mem_ctrls.writePktSize::2                    0                       # Write request sizes (log2)
system.mem_ctrls.writePktSize::3                    0                       # Write request sizes (log2)
system.mem_ctrls.writePktSize::4                    0                       # Write request sizes (log2)
system.mem_ctrls.writePktSize::5                    0                       # Write request sizes (log2)
system.mem_ctrls.writePktSize::6                    0                       # Write request sizes (log2)
system.mem_ctrls.rdQLenPdf::0                    8780                       # What read queue length does an incoming req see
system.mem_ctrls.rdQLenPdf::1                     188                       # What read queue length does an incoming req see
system.mem_ctrls.rdQLenPdf::2                       0                       # What read queue length does an incoming req see
system.mem_ctrls.rdQLenPdf::3                       0                       # What read queue length does an incoming req see
system.mem_ctrls.rdQLenPdf::4                       0                       # What read queue length does an incoming req see
system.mem_ctrls.rdQLenPdf::5                       0                       # What read queue length does an incoming req see
system.mem_ctrls.rdQLenPdf::6                       0                       # What read queue length does an incoming req see
system.mem_ctrls.rdQLenPdf::7                       0                       # What read queue length does an incoming req see
system.mem_ctrls.rdQLenPdf::8                       0                       # What read queue length does an incoming req see
system.mem_ctrls.rdQLenPdf::9                       0                       # What read queue length does an incoming req see
system.mem_ctrls.rdQLenPdf::10                      0                       # What read queue length does an incoming req see
system.mem_ctrls.rdQLenPdf::11                      0                       # What read queue length does an incoming req see
system.mem_ctrls.rdQLenPdf::12                      0                       # What read queue length does an incoming req see
system.mem_ctrls.rdQLenPdf::13                      0                       # What read queue length does an incoming req see
system.mem_ctrls.rdQLenPdf::14                      0                       # What read queue length does an incoming req see
system.mem_ctrls.rdQLenPdf::15                      0                       # What read queue length does an incoming req see
system.mem_ctrls.rdQLenPdf::16                      0                       # What read queue length does an incoming req see
system.mem_ctrls.rdQLenPdf::17                      0                       # What read queue length does an incoming req see
system.mem_ctrls.rdQLenPdf::18                      0                       # What read queue length does an incoming req see
system.mem_ctrls.rdQLenPdf::19                      0                       # What read queue length does an incoming req see
system.mem_ctrls.rdQLenPdf::20                      0                       # What read queue length does an incoming req see
system.mem_ctrls.rdQLenPdf::21                      0                       # What read queue length does an incoming req see
system.mem_ctrls.rdQLenPdf::22                      0                       # What read queue length does an incoming req see
system.mem_ctrls.rdQLenPdf::23                      0                       # What read queue length does an incoming req see
system.mem_ctrls.rdQLenPdf::24                      0                       # What read queue length does an incoming req see
system.mem_ctrls.rdQLenPdf::25                      0                       # What read queue length does an incoming req see
system.mem_ctrls.rdQLenPdf::26                      0                       # What read queue length does an incoming req see
system.mem_ctrls.rdQLenPdf::27                      0                       # What read queue length does an incoming req see
system.mem_ctrls.rdQLenPdf::28                      0                       # What read queue length does an incoming req see
system.mem_ctrls.rdQLenPdf::29                      0                       # What read queue length does an incoming req see
system.mem_ctrls.rdQLenPdf::30                      0                       # What read queue length does an incoming req see
system.mem_ctrls.rdQLenPdf::31                      0                       # What read queue length does an incoming req see
system.mem_ctrls.wrQLenPdf::0                       0                       # What write queue length does an incoming req see
system.mem_ctrls.wrQLenPdf::1                       0                       # What write queue length does an incoming req see
system.mem_ctrls.wrQLenPdf::2                       0                       # What write queue length does an incoming req see
system.mem_ctrls.wrQLenPdf::3                       0                       # What write queue length does an incoming req see
system.mem_ctrls.wrQLenPdf::4                       0                       # What write queue length does an incoming req see
system.mem_ctrls.wrQLenPdf::5                       0                       # What write queue length does an incoming req see
system.mem_ctrls.wrQLenPdf::6                       0                       # What write queue length does an incoming req see
system.mem_ctrls.wrQLenPdf::7                       0                       # What write queue length does an incoming req see
system.mem_ctrls.wrQLenPdf::8                       0                       # What write queue length does an incoming req see
system.mem_ctrls.wrQLenPdf::9                       0                       # What write queue length does an incoming req see
system.mem_ctrls.wrQLenPdf::10                      0                       # What write queue length does an incoming req see
system.mem_ctrls.wrQLenPdf::11                      0                       # What write queue length does an incoming req see
system.mem_ctrls.wrQLenPdf::12                      0                       # What write queue length does an incoming req see
system.mem_ctrls.wrQLenPdf::13                      0                       # What write queue length does an incoming req see
system.mem_ctrls.wrQLenPdf::14                      0                       # What write queue length does an incoming req see
system.mem_ctrls.wrQLenPdf::15                      0                       # What write queue length does an incoming req see
system.mem_ctrls.wrQLenPdf::16                      0                       # What write queue length does an incoming req see
system.mem_ctrls.wrQLenPdf::17                      0                       # What write queue length does an incoming req see
system.mem_ctrls.wrQLenPdf::18                      0                       # What write queue length does an incoming req see
system.mem_ctrls.wrQLenPdf::19                      0                       # What write queue length does an incoming req see
system.mem_ctrls.wrQLenPdf::20                      0                       # What write queue length does an incoming req see
system.mem_ctrls.wrQLenPdf::21                      0                       # What write queue length does an incoming req see
system.mem_ctrls.wrQLenPdf::22                      0                       # What write queue length does an incoming req see
system.mem_ctrls.wrQLenPdf::23                      0                       # What write queue length does an incoming req see
system.mem_ctrls.wrQLenPdf::24                      0                       # What write queue length does an incoming req see
system.mem_ctrls.wrQLenPdf::25                      0                       # What write queue length does an incoming req see
system.mem_ctrls.wrQLenPdf::26                      0                       # What write queue length does an incoming req see
system.mem_ctrls.wrQLenPdf::27                      0                       # What write queue length does an incoming req see
system.mem_ctrls.wrQLenPdf::28                      0                       # What write queue length does an incoming req see
system.mem_ctrls.wrQLenPdf::29                      0                       # What write queue length does an incoming req see
system.mem_ctrls.wrQLenPdf::30                      0                       # What write queue length does an incoming req see
system.mem_ctrls.wrQLenPdf::31                      0                       # What write queue length does an incoming req see
system.mem_ctrls.wrQLenPdf::32                      0                       # What write queue length does an incoming req see
system.mem_ctrls.wrQLenPdf::33                      0                       # What write queue length does an incoming req see
system.mem_ctrls.wrQLenPdf::34                      0                       # What write queue length does an incoming req see
system.mem_ctrls.wrQLenPdf::35                      0                       # What write queue length does an incoming req see
system.mem_ctrls.wrQLenPdf::36                      0                       # What write queue length does an incoming req see
system.mem_ctrls.wrQLenPdf::37                      0                       # What write queue length does an incoming req see
system.mem_ctrls.wrQLenPdf::38                      0                       # What write queue length does an incoming req see
system.mem_ctrls.wrQLenPdf::39                      0                       # What write queue length does an incoming req see
system.mem_ctrls.wrQLenPdf::40                      0                       # What write queue length does an incoming req see
system.mem_ctrls.wrQLenPdf::41                      0                       # What write queue length does an incoming req see
system.mem_ctrls.wrQLenPdf::42                      0                       # What write queue length does an incoming req see
system.mem_ctrls.wrQLenPdf::43                      0                       # What write queue length does an incoming req see
system.mem_ctrls.wrQLenPdf::44                      0                       # What write queue length does an incoming req see
system.mem_ctrls.wrQLenPdf::45                      0                       # What write queue length does an incoming req see
system.mem_ctrls.wrQLenPdf::46                      0                       # What write queue length does an incoming req see
system.mem_ctrls.wrQLenPdf::47                      0                       # What write queue length does an incoming req see
system.mem_ctrls.wrQLenPdf::48                      0                       # What write queue length does an incoming req see
system.mem_ctrls.wrQLenPdf::49                      0                       # What write queue length does an incoming req see
system.mem_ctrls.wrQLenPdf::50                      0                       # What write queue length does an incoming req see
system.mem_ctrls.wrQLenPdf::51                      0                       # What write queue length does an incoming req see
system.mem_ctrls.wrQLenPdf::52                      0                       # What write queue length does an incoming req see
system.mem_ctrls.wrQLenPdf::53                      0                       # What write queue length does an incoming req see
system.mem_ctrls.wrQLenPdf::54                      0                       # What write queue length does an incoming req see
system.mem_ctrls.wrQLenPdf::55                      0                       # What write queue length does an incoming req see
system.mem_ctrls.wrQLenPdf::56                      0                       # What write queue length does an incoming req see
system.mem_ctrls.wrQLenPdf::57                      0                       # What write queue length does an incoming req see
system.mem_ctrls.wrQLenPdf::58                      0                       # What write queue length does an incoming req see
system.mem_ctrls.wrQLenPdf::59                      0                       # What write queue length does an incoming req see
system.mem_ctrls.wrQLenPdf::60                      0                       # What write queue length does an incoming req see
system.mem_ctrls.wrQLenPdf::61                      0                       # What write queue length does an incoming req see
system.mem_ctrls.wrQLenPdf::62                      0                       # What write queue length does an incoming req see
system.mem_ctrls.wrQLenPdf::63                      0                       # What write queue length does an incoming req see
system.mem_ctrls.bytesPerActivate::samples         3047                       # Bytes accessed per row activation
system.mem_ctrls.bytesPerActivate::mean    188.303249                       # Bytes accessed per row activation
system.mem_ctrls.bytesPerActivate::gmean   122.466806                       # Bytes accessed per row activation
system.mem_ctrls.bytesPerActivate::stdev   232.259206                       # Bytes accessed per row activation
system.mem_ctrls.bytesPerActivate::0-127         1541     50.57%     50.57% # Bytes accessed per row activation
system.mem_ctrls.bytesPerActivate::128-255          883     28.98%     79.55% # Bytes accessed per row activation
system.mem_ctrls.bytesPerActivate::256-383          244      8.01%     87.56% # Bytes accessed per row activation
system.mem_ctrls.bytesPerActivate::384-511          102      3.35%     90.91% # Bytes accessed per row activation
system.mem_ctrls.bytesPerActivate::512-639           59      1.94%     92.85% # Bytes accessed per row activation
system.mem_ctrls.bytesPerActivate::640-767           39      1.28%     94.13% # Bytes accessed per row activation
system.mem_ctrls.bytesPerActivate::768-895           25      0.82%     94.95% # Bytes accessed per row activation
system.mem_ctrls.bytesPerActivate::896-1023           20      0.66%     95.60% # Bytes accessed per row activation
system.mem_ctrls.bytesPerActivate::1024-1151          134      4.40%    100.00% # Bytes accessed per row activation
system.mem_ctrls.bytesPerActivate::total         3047                       # Bytes accessed per row activation
system.mem_ctrls.bytesReadDRAM                 573952                       # Total number of bytes read from DRAM
system.mem_ctrls.bytesReadWrQ                       0                       # Total number of bytes read from write queue
system.mem_ctrls.bytesWritten                       0                       # Total number of bytes written to DRAM
system.mem_ctrls.bytesReadSys                  573952                       # Total read bytes from the system interface side
system.mem_ctrls.bytesWrittenSys                    0                       # Total written bytes from the system interface side
system.mem_ctrls.avgRdBW                       196.05                       # Average DRAM read bandwidth in MiByte/s
system.mem_ctrls.avgWrBW                         0.00                       # Average achieved write bandwidth in MiByte/s
system.mem_ctrls.avgRdBWSys                    196.05                       # Average system read bandwidth in MiByte/s
system.mem_ctrls.avgWrBWSys                      0.00                       # Average system write bandwidth in MiByte/s
system.mem_ctrls.peakBW                      12800.00                       # Theoretical peak bandwidth in MiByte/s
system.mem_ctrls.busUtil                         1.53                       # Data bus utilization in percentage
system.mem_ctrls.busUtilRead                     1.53                       # Data bus utilization in percentage for reads
system.mem_ctrls.busUtilWrite                    0.00                       # Data bus utilization in percentage for writes
system.mem_ctrls.totGap                    2924941000                       # Total gap between requests
system.mem_ctrls.avgGap                     326153.10                       # Average gap between requests
system.mem_ctrls.masterReadBytes::.cpu.inst       102976                       # Per-master bytes read from memory
system.mem_ctrls.masterReadBytes::.cpu.data       470976                       # Per-master bytes read from memory
system.mem_ctrls.masterReadRate::.cpu.inst 35175189.358357489109                       # Per-master bytes read from memory rate (Bytes/sec)
system.mem_ctrls.masterReadRate::.cpu.data 160878942.503513216972                       # Per-master bytes read from memory rate (Bytes/sec)
system.mem_ctrls.masterReadAccesses::.cpu.inst         1609                       # Per-master read serviced memory accesses
system.mem_ctrls.masterReadAccesses::.cpu.data         7359                       # Per-master read serviced memory accesses
system.mem_ctrls.masterReadTotalLat::.cpu.inst     40362000                       # Per-master read total memory access latency
system.mem_ctrls.masterReadTotalLat::.cpu.data    210290250                       # Per-master read total memory access latency
system.mem_ctrls.masterReadAvgLat::.cpu.inst     25085.15                       # Per-master read average memory access latency
system.mem_ctrls.masterReadAvgLat::.cpu.data     28575.93                       # Per-master read average memory access latency
system.mem_ctrls.pageHitRate                    66.00                       # Row buffer hit rate, read and write combined
system.mem_ctrls.rank1.actEnergy             11566800                       # Energy for activate commands per rank (pJ)
system.mem_ctrls.rank1.preEnergy              6144105                       # Energy for precharge commands per rank (pJ)
system.mem_ctrls.rank1.readEnergy            31994340                       # Energy for read commands per rank (pJ)
system.mem_ctrls.rank1.writeEnergy                  0                       # Energy for write commands per rank (pJ)
system.mem_ctrls.rank1.refreshEnergy     230490000.000000                       # Energy for refresh commands per rank (pJ)
system.mem_ctrls.rank1.actBackEnergy       1151629140                       # Energy for active background per rank (pJ)
system.mem_ctrls.rank1.preBackEnergy        154374240                       # Energy for precharge background per rank (pJ)
system.mem_ctrls.rank1.actPowerDownEnergy            0                       # Energy for active power-down per rank (pJ)
system.mem_ctrls.rank1.prePowerDownEnergy            0                       # Energy for precharge power-down per rank (pJ)
system.mem_ctrls.rank1.selfRefreshEnergy            0                       # Energy for self refresh per rank (pJ)
system.mem_ctrls.rank1.totalEnergy         1586198625                       # Total energy per rank (pJ)
system.mem_ctrls.rank1.averagePower        541.823697                       # Core power per rank (mW)
system.mem_ctrls.rank1.totalIdleTime                0                       # Total Idle time Per DRAM Rank
system.mem_ctrls.rank1.memoryStateTime::IDLE    390709750                       # Time in different power states
system.mem_ctrls.rank1.memoryStateTime::REF     97500000                       # Time in different power states
system.mem_ctrls.rank1.memoryStateTime::SREF            0                       # Time in different power states
system.mem_ctrls.rank1.memoryStateTime::PRE_PDN            0                       # Time in different power states
system.mem_ctrls.rank1.memoryStateTime::ACT   2439308250                       # Time in different power states
system.mem_ctrls.rank1.memoryStateTime::ACT_PDN            0                       # Time in different power states
system.mem_ctrls.rank0.actEnergy             10203060                       # Energy for activate commands per rank (pJ)
system.mem_ctrls.rank0.preEnergy              5419260                       # Energy for precharge commands per rank (pJ)
system.mem_ctrls.rank0.readEnergy            32037180                       # Energy for read commands per rank (pJ)
system.mem_ctrls.rank0.writeEnergy                  0                       # Energy for write commands per rank (pJ)
system.mem_ctrls.rank0.refreshEnergy     230490000.000000                       # Energy for refresh commands per rank (pJ)
system.mem_ctrls.rank0.actBackEnergy       1111940610                       # Energy for active background per rank (pJ)
system.mem_ctrls.rank0.preBackEnergy        187796160                       # Energy for precharge background per rank (pJ)
system.mem_ctrls.rank0.actPowerDownEnergy            0                       # Energy for active power-down per rank (pJ)
system.mem_ctrls.rank0.prePowerDownEnergy            0                       # Energy for precharge power-down per rank (pJ)
system.mem_ctrls.rank0.selfRefreshEnergy            0                       # Energy for self refresh per rank (pJ)
system.mem_ctrls.rank0.totalEnergy         1577886270                       # Total energy per rank (pJ)
system.mem_ctrls.rank0.averagePower        538.984310                       # Core power per rank (mW)
system.mem_ctrls.rank0.totalIdleTime                0                       # Total Idle time Per DRAM Rank
system.mem_ctrls.rank0.memoryStateTime::IDLE    477906750                       # Time in different power states
system.mem_ctrls.rank0.memoryStateTime::REF     97500000                       # Time in different power states
system.mem_ctrls.rank0.memoryStateTime::SREF            0                       # Time in different power states
system.mem_ctrls.rank0.memoryStateTime::PRE_PDN            0                       # Time in different power states
system.mem_ctrls.rank0.memoryStateTime::ACT   2352111250                       # Time in different power states
system.mem_ctrls.rank0.memoryStateTime::ACT_PDN            0                       # Time in different power states
system.mem_ctrls.power_state.pwrStateResidencyTicks::UNDEFINED   2927518000                       # Cumulative time (in ticks) in various power states
system.cpu_clk_domain.clock                       500                       # Clock period in ticks
system.cpu.icache.demand_hits::.cpu.inst       417574                       # number of demand (read+write) hits
system.cpu.icache.demand_hits::total           417574                       # number of demand (read+write) hits
system.cpu.icache.overall_hits::.cpu.inst       417574                       # number of overall hits
system.cpu.icache.overall_hits::total          417574                       # number of overall hits
system.cpu.icache.demand_misses::.cpu.inst         2481                       # number of demand (read+write) misses
system.cpu.icache.demand_misses::total           2481                       # number of demand (read+write) misses
system.cpu.icache.overall_misses::.cpu.inst         2481                       # number of overall misses
system.cpu.icache.overall_misses::total          2481                       # number of overall misses
system.cpu.icache.demand_miss_latency::.cpu.inst    137675500                       # number of demand (read+write) miss cycles
system.cpu.icache.demand_miss_latency::total    137675500                       # number of demand (read+write) miss cycles
system.cpu.icache.overall_miss_latency::.cpu.inst    137675500                       # number of overall miss cycles
system.cpu.icache.overall_miss_latency::total    137675500                       # number of overall miss cycles
system.cpu.icache.demand_accesses::.cpu.inst       420055                       # number of demand (read+write) accesses
system.cpu.icache.demand_accesses::total       420055                       # number of demand (read+write) accesses
system.cpu.icache.overall_accesses::.cpu.inst       420055                       # number of overall (read+write) accesses
system.cpu.icache.overall_accesses::total       420055                       # number of overall (read+write) accesses
system.cpu.icache.demand_miss_rate::.cpu.inst     0.005906                       # miss rate for demand accesses
system.cpu.icache.demand_miss_rate::total     0.005906                       # miss rate for demand accesses
system.cpu.icache.overall_miss_rate::.cpu.inst     0.005906                       # miss rate for overall accesses
system.cpu.icache.overall_miss_rate::total     0.005906                       # miss rate for overall accesses
system.cpu.icache.demand_avg_miss_latency::.cpu.inst 55491.938734                       # average overall miss latency
system.cpu.icache.demand_avg_miss_latency::total 55491.938734                       # average overall miss latency
system.cpu.icache.overall_avg_miss_latency::.cpu.inst 55491.938734                       # average overall miss latency
system.cpu.icache.overall_avg_miss_latency::total 55491.938734                       # average overall miss latency
system.cpu.icache.blocked_cycles::no_mshrs            0                       # number of cycles access was blocked
system.cpu.icache.blocked_cycles::no_targets            0                       # number of cycles access was blocked
system.cpu.icache.blocked::no_mshrs                 0                       # number of cycles access was blocked
system.cpu.icache.blocked::no_targets               0                       # number of cycles access was blocked
system.cpu.icache.avg_blocked_cycles::no_mshrs          nan                       # average number of cycles each access was blocked
system.cpu.icache.avg_blocked_cycles::no_targets          nan                       # average number of cycles each access was blocked
system.cpu.icache.writebacks::.writebacks         2224                       # number of writebacks
system.cpu.icache.writebacks::total              2224                       # number of writebacks
system.cpu.icache.demand_mshr_misses::.cpu.inst         2481                       # number of demand (read+write) MSHR misses
system.cpu.icache.demand_mshr_misses::total         2481                       # number of demand (read+write) MSHR misses
system.cpu.icache.overall_mshr_misses::.cpu.inst         2481                       # number of overall MSHR misses
system.cpu.icache.overall_mshr_misses::total         2481                       # number of overall MSHR misses
system.cpu.icache.demand_mshr_miss_latency::.cpu.inst    135195500                       # number of demand (read+write) MSHR miss cycles
system.cpu.icache.demand_mshr_miss_latency::total    135195500                       # number of demand (read+write) MSHR miss cycles
system.cpu.icache.overall_mshr_miss_latency::.cpu.inst    135195500                       # number of overall MSHR miss cycles
system.cpu.icache.overall_mshr_miss_latency::total    135195500                       # number of overall MSHR miss cycles
system.cpu.icache.demand_mshr_miss_rate::.cpu.inst     0.005906                       # mshr miss rate for demand accesses
system.cpu.icache.demand_mshr_miss_rate::total     0.005906                       # mshr miss rate for demand accesses
system.cpu.icache.overall_mshr_miss_rate::.cpu.inst     0.005906                       # mshr miss rate for overall accesses
system.cpu.icache.overall_mshr_miss_rate::total     0.005906                       # mshr miss rate for overall accesses
system.cpu.icache.demand_avg_mshr_miss_latency::.cpu.inst 54492.341798                       # average overall mshr miss latency
system.cpu.icache.demand_avg_mshr_miss_latency::total 54492.341798                       # average overall mshr miss latency
system.cpu.icache.overall_avg_mshr_miss_latency::.cpu.inst 54492.341798                       # average overall mshr miss latency
system.cpu.icache.overall_avg_mshr_miss_latency::total 54492.341798                       # average overall mshr miss latency
system.cpu.icache.replacements                   2224                       # number of replacements
system.cpu.icache.ReadReq_hits::.cpu.inst       417574                       # number of ReadReq hits
system.cpu.icache.ReadReq_hits::total          417574                       # number of ReadReq hits
system.cpu.icache.ReadReq_misses::.cpu.inst         2481                       # number of ReadReq misses
system.cpu.icache.ReadReq_misses::total          2481                       # number of ReadReq misses
system.cpu.icache.ReadReq_miss_latency::.cpu.inst    137675500                       # number of ReadReq miss cycles
system.cpu.icache.ReadReq_miss_latency::total    137675500                       # number of ReadReq miss cycles
system.cpu.icache.ReadReq_accesses::.cpu.inst       420055                       # number of ReadReq accesses(hits+misses)
system.cpu.icache.ReadReq_accesses::total       420055                       # number of ReadReq accesses(hits+misses)
system.cpu.icache.ReadReq_miss_rate::.cpu.inst     0.005906                       # miss rate for ReadReq accesses
system.cpu.icache.ReadReq_miss_rate::total     0.005906                       # miss rate for ReadReq accesses
system.cpu.icache.ReadReq_avg_miss_latency::.cpu.inst 55491.938734                       # average ReadReq miss latency
system.cpu.icache.ReadReq_avg_miss_latency::total 55491.938734                       # average ReadReq miss latency
system.cpu.icache.ReadReq_mshr_misses::.cpu.inst         2481                       # number of ReadReq MSHR misses
system.cpu.icache.ReadReq_mshr_misses::total         2481                       # number of ReadReq MSHR misses
system.cpu.icache.ReadReq_mshr_miss_latency::.cpu.inst    135195500                       # number of ReadReq MSHR miss cycles
system.cpu.icache.ReadReq_mshr_miss_latency::total    135195500                       # number of ReadReq MSHR miss cycles
system.cpu.icache.ReadReq_mshr_miss_rate::.cpu.inst     0.005906                       # mshr miss rate for ReadReq accesses
system.cpu.icache.ReadReq_mshr_miss_rate::total     0.005906                       # mshr miss rate for ReadReq accesses
system.cpu.icache.ReadReq_avg_mshr_miss_latency::.cpu.inst 54492.341798                       # average ReadReq mshr miss latency
system.cpu.icache.ReadReq_avg_mshr_miss_latency::total 54492.341798                       # average ReadReq mshr miss latency
system.cpu.icache.power_state.pwrStateResidencyTicks::UNDEFINED   2927518000                       # Cumulative time (in ticks) in various power states
system.cpu.icache.tags.tagsinuse           253.960193                       # Cycle average of tags in use
system.cpu.icache.tags.total_refs              342904                       # Total number of references to valid blocks.
system.cpu.icache.tags.sampled_refs              2224                       # Sample count of references to valid blocks.
system.cpu.icache.tags.avg_refs            154.183453                       # Average number of references to valid blocks.
system.cpu.icache.tags.warmup_cycle             87500                       # Cycle when the warmup percentage was hit.
system.cpu.icache.tags.occ_blocks::.cpu.inst   253.960193                       # Average occupied blocks per requestor
[...]
system.cpu.icache.ReadReq_mshr_miss_latency::total     42154500                       # number of ReadReq MSHR miss cycles
system.cpu.icache.ReadReq_mshr_miss_rate::.cpu.inst     0.101984                       # mshr miss rate for ReadReq accesses
system.cpu.icache.ReadReq_mshr_miss_rate::total     0.101984                       # mshr miss rate for ReadReq accesses
system.cpu.icache.ReadReq_avg_mshr_miss_latency::.cpu.inst 51914.408867                       # average ReadReq mshr miss latency
system.cpu.icache.ReadReq_avg_mshr_miss_latency::total 51914.408867                       # average ReadReq mshr miss latency
system.cpu.icache.power_state.pwrStateResidencyTicks::UNDEFINED     91763000                       # Cumulative time (in ticks) in various power states
system.cpu.icache.tags.tagsinuse                  256                       # Cycle average of tags in use
system.cpu.icache.tags.total_refs               84917                       # Total number of references to valid blocks.
system.cpu.icache.tags.sampled_refs              1067                       # Sample count of references to valid blocks.
system.cpu.icache.tags.avg_refs             79.584817                       # Average number of references to valid blocks.
system.cpu.icache.tags.warmup_cycle                 0                       # Cycle when the warmup percentage was hit.
system.cpu.icache.tags.occ_blocks::.cpu.inst          256                       # Average occupied blocks per requestor
system.cpu.icache.tags.occ_percent::.cpu.inst            1                       # Average percentage of cache occupancy
system.cpu.icache.tags.occ_percent::total            1                       # Average percentage of cache occupancy
system.cpu.icache.tags.occ_task_id_blocks::1024          256                       # Occupied blocks per task id
system.cpu.icache.tags.age_task_id_blocks_1024::0           74                       # Occupied blocks per task id
system.cpu.icache.tags.age_task_id_blocks_1024::1          174                       # Occupied blocks per task id
system.cpu.icache.tags.age_task_id_blocks_1024::2            8                       # Occupied blocks per task id
system.cpu.icache.tags.occ_task_id_percent::1024            1                       # Percentage of cache occupancy per task id
system.cpu.icache.tags.tag_accesses             16735                       # Number of tag accesses
system.cpu.icache.tags.data_accesses            16735                       # Number of data accesses
system.cpu.icache.tags.power_state.pwrStateResidencyTicks::UNDEFINED     91763000                       # Cumulative time (in ticks) in various power states
system.cpu.dtb.walker.power_state.pwrStateResidencyTicks::UNDEFINED     91763000                       # Cumulative time (in ticks) in various power states
system.cpu.interrupts.clk_domain.clock           8000                       # Clock period in ticks
system.cpu.itb_walker_cache.blocked_cycles::no_mshrs            0                       # number of cycles access was blocked
system.cpu.itb_walker_cache.blocked_cycles::no_targets            0                       # number of cycles access was blocked
system.cpu.itb_walker_cache.blocked::no_mshrs            0                       # number of cycles access was blocked
system.cpu.itb_walker_cache.blocked::no_targets            0                       # number of cycles access was blocked
system.cpu.itb_walker_cache.avg_blocked_cycles::no_mshrs          nan                       # average number of cycles each access was blocked
system.cpu.itb_walker_cache.avg_blocked_cycles::no_targets          nan                       # average number of cycles each access was blocked
system.cpu.itb_walker_cache.replacements            0                       # number of replacements
system.cpu.itb_walker_cache.power_state.pwrStateResidencyTicks::UNDEFINED     91763000                       # Cumulative time (in ticks) in various power states
system.cpu.itb_walker_cache.tags.tagsinuse            0                       # Cycle average of tags in use
system.cpu.itb_walker_cache.tags.total_refs            0                       # Total number of references to valid blocks.
system.cpu.itb_walker_cache.tags.sampled_refs            0                       # Sample count of references to valid blocks.
system.cpu.itb_walker_cache.tags.avg_refs          nan                       # Average number of references to valid blocks.
system.cpu.itb_walker_cache.tags.warmup_cycle            0                       # Cycle when the warmup percentage was hit.
system.cpu.itb_walker_cache.tags.tag_accesses            0                       # Number of tag accesses
system.cpu.itb_walker_cache.tags.data_accesses            0                       # Number of data accesses
system.cpu.itb_walker_cache.tags.power_state.pwrStateResidencyTicks::UNDEFINED     91763000                       # Cumulative time (in ticks) in various power states
system.cpu.dtb_walker_cache.blocked_cycles::no_mshrs            0                       # number of cycles access was blocked
system.cpu.dtb_walker_cache.blocked_cycles::no_targets            0                       # number of cycles access was blocked
system.cpu.dtb_walker_cache.blocked::no_mshrs            0                       # number of cycles access was blocked
system.cpu.dtb_walker_cache.blocked::no_targets            0                       # number of cycles access was blocked
system.cpu.dtb_walker_cache.avg_blocked_cycles::no_mshrs          nan                       # average number of cycles each access was blocked
system.cpu.dtb_walker_cache.avg_blocked_cycles::no_targets          nan                       # average number of cycles each access was blocked
system.cpu.dtb_walker_cache.replacements            0                       # number of replacements
system.cpu.dtb_walker_cache.power_state.pwrStateResidencyTicks::UNDEFINED     91763000                       # Cumulative time (in ticks) in various power states
system.cpu.dtb_walker_cache.tags.tagsinuse            0                       # Cycle average of tags in use
system.cpu.dtb_walker_cache.tags.total_refs            0                       # Total number of references to valid blocks.
system.cpu.dtb_walker_cache.tags.sampled_refs            0                       # Sample count of references to valid blocks.
system.cpu.dtb_walker_cache.tags.avg_refs          nan                       # Average number of references to valid blocks.
system.cpu.dtb_walker_cache.tags.warmup_cycle            0                       # Cycle when the warmup percentage was hit.
system.cpu.dtb_walker_cache.tags.tag_accesses            0                       # Number of tag accesses
system.cpu.dtb_walker_cache.tags.data_accesses            0                       # Number of data accesses
system.cpu.dtb_walker_cache.tags.power_state.pwrStateResidencyTicks::UNDEFINED     91763000                       # Cumulative time (in ticks) in various power states
system.cpu.dcache.demand_hits::.cpu.data        12661                       # number of demand (read+write) hits
system.cpu.dcache.demand_hits::total            12661                       # number of demand (read+write) hits
system.cpu.dcache.overall_hits::.cpu.data        12661                       # number of overall hits
system.cpu.dcache.overall_hits::total           12661                       # number of overall hits
system.cpu.dcache.demand_misses::.cpu.data          394                       # number of demand (read+write) misses
system.cpu.dcache.demand_misses::total            394                       # number of demand (read+write) misses
system.cpu.dcache.overall_misses::.cpu.data          394                       # number of overall misses
system.cpu.dcache.overall_misses::total           394                       # number of overall misses
system.cpu.dcache.demand_miss_latency::.cpu.data     10466500                       # number of demand (read+write) miss cycles
system.cpu.dcache.demand_miss_latency::total     10466500                       # number of demand (read+write) miss cycles
system.cpu.dcache.overall_miss_latency::.cpu.data     10466500                       # number of overall miss cycles
system.cpu.dcache.overall_miss_latency::total     10466500                       # number of overall miss cycles
system.cpu.dcache.demand_accesses::.cpu.data        13055                       # number of demand (read+write) accesses
system.cpu.dcache.demand_accesses::total        13055                       # number of demand (read+write) accesses
system.cpu.dcache.overall_accesses::.cpu.data        13055                       # number of overall (read+write) accesses
system.cpu.dcache.overall_accesses::total        13055                       # number of overall (read+write) accesses
system.cpu.dcache.demand_miss_rate::.cpu.data     0.030180                       # miss rate for demand accesses
system.cpu.dcache.demand_miss_rate::total     0.030180                       # miss rate for demand accesses
system.cpu.dcache.overall_miss_rate::.cpu.data     0.030180                       # miss rate for overall accesses
system.cpu.dcache.overall_miss_rate::total     0.030180                       # miss rate for overall accesses
system.cpu.dcache.demand_avg_miss_latency::.cpu.data 26564.720812                       # average overall miss latency
system.cpu.dcache.demand_avg_miss_latency::total 26564.720812                       # average overall miss latency
system.cpu.dcache.overall_avg_miss_latency::.cpu.data 26564.720812                       # average overall miss latency
system.cpu.dcache.overall_avg_miss_latency::total 26564.720812                       # average overall miss latency
system.cpu.dcache.blocked_cycles::no_mshrs            0                       # number of cycles access was blocked
system.cpu.dcache.blocked_cycles::no_targets            0                       # number of cycles access was blocked
system.cpu.dcache.blocked::no_mshrs                 0                       # number of cycles access was blocked
system.cpu.dcache.blocked::no_targets               0                       # number of cycles access was blocked
system.cpu.dcache.avg_blocked_cycles::no_mshrs          nan                       # average number of cycles each access was blocked
system.cpu.dcache.avg_blocked_cycles::no_targets          nan                       # average number of cycles each access was blocked
system.cpu.dcache.writebacks::.writebacks          102                       # number of writebacks
system.cpu.dcache.writebacks::total               102                       # number of writebacks
system.cpu.dcache.demand_mshr_misses::.cpu.data          394                       # number of demand (read+write) MSHR misses
system.cpu.dcache.demand_mshr_misses::total          394                       # number of demand (read+write) MSHR misses
system.cpu.dcache.overall_mshr_misses::.cpu.data          394                       # number of overall MSHR misses
system.cpu.dcache.overall_mshr_misses::total          394                       # number of overall MSHR misses
system.cpu.dcache.demand_mshr_miss_latency::.cpu.data     10072500                       # number of demand (read+write) MSHR miss cycles
system.cpu.dcache.demand_mshr_miss_latency::total     10072500                       # number of demand (read+write) MSHR miss cycles
system.cpu.dcache.overall_mshr_miss_latency::.cpu.data     10072500                       # number of overall MSHR miss cycles
system.cpu.dcache.overall_mshr_miss_latency::total     10072500                       # number of overall MSHR miss cycles
system.cpu.dcache.demand_mshr_miss_rate::.cpu.data     0.030180                       # mshr miss rate for demand accesses
system.cpu.dcache.demand_mshr_miss_rate::total     0.030180                       # mshr miss rate for demand accesses
system.cpu.dcache.overall_mshr_miss_rate::.cpu.data     0.030180                       # mshr miss rate for overall accesses
system.cpu.dcache.overall_mshr_miss_rate::total     0.030180                       # mshr miss rate for overall accesses
system.cpu.dcache.demand_avg_mshr_miss_latency::.cpu.data 25564.720812                       # average overall mshr miss latency
system.cpu.dcache.demand_avg_mshr_miss_latency::total 25564.720812                       # average overall mshr miss latency
system.cpu.dcache.overall_avg_mshr_miss_latency::.cpu.data 25564.720812                       # average overall mshr miss latency
system.cpu.dcache.overall_avg_mshr_miss_latency::total 25564.720812                       # average overall mshr miss latency
system.cpu.dcache.replacements                    394                       # number of replacements
system.cpu.dcache.ReadReq_hits::.cpu.data         8565                       # number of ReadReq hits
system.cpu.dcache.ReadReq_hits::total            8565                       # number of ReadReq hits
system.cpu.dcache.ReadReq_misses::.cpu.data          354                       # number of ReadReq misses
system.cpu.dcache.ReadReq_misses::total           354                       # number of ReadReq misses
system.cpu.dcache.ReadReq_miss_latency::.cpu.data      7739000                       # number of ReadReq miss cycles
system.cpu.dcache.ReadReq_miss_latency::total      7739000                       # number of ReadReq miss cycles
system.cpu.dcache.ReadReq_accesses::.cpu.data         8919                       # number of ReadReq accesses(hits+misses)
system.cpu.dcache.ReadReq_accesses::total         8919                       # number of ReadReq accesses(hits+misses)
system.cpu.dcache.ReadReq_miss_rate::.cpu.data     0.039691                       # miss rate for ReadReq accesses
system.cpu.dcache.ReadReq_miss_rate::total     0.039691                       # miss rate for ReadReq accesses
system.cpu.dcache.ReadReq_avg_miss_latency::.cpu.data 21861.581921                       # average ReadReq miss latency
system.cpu.dcache.ReadReq_avg_miss_latency::total 21861.581921                       # average ReadReq miss latency
system.cpu.dcache.ReadReq_mshr_misses::.cpu.data          354                       # number of ReadReq MSHR misses
system.cpu.dcache.ReadReq_mshr_misses::total          354                       # number of ReadReq MSHR misses
system.cpu.dcache.ReadReq_mshr_miss_latency::.cpu.data      7385000                       # number of ReadReq MSHR miss cycles
system.cpu.dcache.ReadReq_mshr_miss_latency::total      7385000                       # number of ReadReq MSHR miss cycles
system.cpu.dcache.ReadReq_mshr_miss_rate::.cpu.data     0.039691                       # mshr miss rate for ReadReq accesses
system.cpu.dcache.ReadReq_mshr_miss_rate::total     0.039691                       # mshr miss rate for ReadReq accesses
system.cpu.dcache.ReadReq_avg_mshr_miss_latency::.cpu.data 20861.581921                       # average ReadReq mshr miss latency
system.cpu.dcache.ReadReq_avg_mshr_miss_latency::total 20861.581921                       # average ReadReq mshr miss latency
system.cpu.dcache.WriteReq_hits::.cpu.data         4096                       # number of WriteReq hits
system.cpu.dcache.WriteReq_hits::total           4096                       # number of WriteReq hits
system.cpu.dcache.WriteReq_misses::.cpu.data           40                       # number of WriteReq misses
system.cpu.dcache.WriteReq_misses::total           40                       # number of WriteReq misses
system.cpu.dcache.WriteReq_miss_latency::.cpu.data      2727500                       # number of WriteReq miss cycles
system.cpu.dcache.WriteReq_miss_latency::total      2727500                       # number of WriteReq miss cycles
system.cpu.dcache.WriteReq_accesses::.cpu.data         4136                       # number of WriteReq accesses(hits+misses)
system.cpu.dcache.WriteReq_accesses::total         4136                       # number of WriteReq accesses(hits+misses)
system.cpu.dcache.WriteReq_miss_rate::.cpu.data     0.009671                       # miss rate for WriteReq accesses
system.cpu.dcache.WriteReq_miss_rate::total     0.009671                       # miss rate for WriteReq accesses
system.cpu.dcache.WriteReq_avg_miss_latency::.cpu.data 68187.500000                       # average WriteReq miss latency
system.cpu.dcache.WriteReq_avg_miss_latency::total 68187.500000                       # average WriteReq miss latency
system.cpu.dcache.WriteReq_mshr_misses::.cpu.data           40                       # number of WriteReq MSHR misses
system.cpu.dcache.WriteReq_mshr_misses::total           40                       # number of WriteReq MSHR misses
system.cpu.dcache.WriteReq_mshr_miss_latency::.cpu.data      2687500                       # number of WriteReq MSHR miss cycles
system.cpu.dcache.WriteReq_mshr_miss_latency::total      2687500                       # number of WriteReq MSHR miss cycles
system.cpu.dcache.WriteReq_mshr_miss_rate::.cpu.data     0.009671                       # mshr miss rate for WriteReq accesses
system.cpu.dcache.WriteReq_mshr_miss_rate::total     0.009671                       # mshr miss rate for WriteReq accesses
system.cpu.dcache.WriteReq_avg_mshr_miss_latency::.cpu.data 67187.500000                       # average WriteReq mshr miss latency
system.cpu.dcache.WriteReq_avg_mshr_miss_latency::total 67187.500000                       # average WriteReq mshr miss latency
system.cpu.dcache.power_state.pwrStateResidencyTicks::UNDEFINED     91763000                       # Cumulative time (in ticks) in various power states
system.cpu.dcache.tags.tagsinuse                 1024                       # Cycle average of tags in use
system.cpu.dcache.tags.total_refs              114773                       # Total number of references to valid blocks.
system.cpu.dcache.tags.sampled_refs              1418                       # Sample count of references to valid blocks.
system.cpu.dcache.tags.avg_refs             80.940056                       # Average number of references to valid blocks.
system.cpu.dcache.tags.warmup_cycle                 0                       # Cycle when the warmup percentage was hit.
system.cpu.dcache.tags.occ_blocks::.cpu.data         1024                       # Average occupied blocks per requestor
system.cpu.dcache.tags.occ_percent::.cpu.data            1                       # Average percentage of cache occupancy
system.cpu.dcache.tags.occ_percent::total            1                       # Average percentage of cache occupancy
system.cpu.dcache.tags.occ_task_id_blocks::1024         1024                       # Occupied blocks per task id
system.cpu.dcache.tags.age_task_id_blocks_1024::0           56                       # Occupied blocks per task id
system.cpu.dcache.tags.age_task_id_blocks_1024::1          252                       # Occupied blocks per task id
system.cpu.dcache.tags.age_task_id_blocks_1024::2          706                       # Occupied blocks per task id
system.cpu.dcache.tags.age_task_id_blocks_1024::3           10                       # Occupied blocks per task id
system.cpu.dcache.tags.occ_task_id_percent::1024            1                       # Percentage of cache occupancy per task id
system.cpu.dcache.tags.tag_accesses             26504                       # Number of tag accesses
system.cpu.dcache.tags.data_accesses            26504                       # Number of data accesses
system.cpu.dcache.tags.power_state.pwrStateResidencyTicks::UNDEFINED     91763000                       # Cumulative time (in ticks) in various power states
system.cpu.power_state.pwrStateResidencyTicks::ON     91763000                       # Cumulative time (in ticks) in various power states
system.cpu.itb.walker.power_state.pwrStateResidencyTicks::UNDEFINED     91763000                       # Cumulative time (in ticks) in various power states

---------- End Simulation Statistics   ----------
