
---------- Begin Simulation Statistics ----------
final_tick                               134093640000                       # Number of ticks from beginning of simulation (restored from checkpoints and never reset)
host_inst_rate                                 180308                       # Simulator instruction rate (inst/s)
host_mem_usage                                 874628                       # Number of bytes of host memory used
host_op_rate                                   183600                       # Simulator op (including micro ops) rate (op/s)
host_seconds                                   554.61                       # Real time elapsed on the host
host_tick_rate                              241781486                       # Simulator tick rate (ticks/s)
sim_freq                                 1000000000000                       # Frequency of simulated ticks
sim_insts                                   100000000                       # Number of instructions simulated
sim_ops                                     101825745                       # Number of ops (including micro ops) simulated
sim_seconds                                  0.134094                       # Number of seconds simulated
sim_ticks                                134093640000                       # Number of ticks simulated
system.cpu.branchPred.BTBCorrect                    0                       # Number of correct BTB predictions (this stat may not work properly.
system.cpu.branchPred.BTBHitPct             99.933291                       # BTB Hit Percentage
system.cpu.branchPred.BTBHits                11019599                       # Number of BTB hits
system.cpu.branchPred.BTBLookups             11026955                       # Number of BTB lookups
system.cpu.branchPred.RASInCorrect             590302                       # Number of incorrect RAS predictions.
system.cpu.branchPred.condIncorrect           9829082                       # Number of conditional branches incorrect
system.cpu.branchPred.condPredicted          18701982                       # Number of conditional branches predicted
system.cpu.branchPred.indirectHits                114                       # Number of indirect target hits.
system.cpu.branchPred.indirectLookups             236                       # Number of indirect predictor lookups.
system.cpu.branchPred.indirectMisses              122                       # Number of indirect misses.
system.cpu.branchPred.lookups                23197815                       # Number of BP lookups
system.cpu.branchPred.usedRAS                 1040205                       # Number of times the RAS was used to get a target.
system.cpu.branchPredindirectMispredicted          180                       # Number of mispredicted indirect branches.
system.cpu.committedInsts                   100000000                       # Number of instructions committed
system.cpu.committedOps                     101825745                       # Number of ops (including micro ops) committed
system.cpu.cpi                               2.681873                       # CPI: cycles per instruction
system.cpu.discardedOps                      11282353                       # Number of ops (including micro ops) which were discarded before commit
system.cpu.dtb.accesses                             0                       # DTB accesses
system.cpu.dtb.align_faults                         0                       # Number of TLB faults due to alignment restrictions
system.cpu.dtb.domain_faults                        0                       # Number of TLB faults due to domain restrictions
system.cpu.dtb.flush_entries                        0                       # Number of entries that have been flushed from TLB
system.cpu.dtb.flush_tlb                            0                       # Number of times complete TLB was flushed
system.cpu.dtb.flush_tlb_asid                       0                       # Number of times TLB was flushed by ASID
system.cpu.dtb.flush_tlb_mva                        0                       # Number of times TLB was flushed by MVA
system.cpu.dtb.flush_tlb_mva_asid                   0                       # Number of times TLB was flushed by MVA & ASID
system.cpu.dtb.hits                                 0                       # DTB hits
system.cpu.dtb.inst_accesses                        0                       # ITB inst accesses
system.cpu.dtb.inst_hits                            0                       # ITB inst hits
system.cpu.dtb.inst_misses                          0                       # ITB inst misses
system.cpu.dtb.misses                               0                       # DTB misses
system.cpu.dtb.perms_faults                         0                       # Number of TLB faults due to permissions restrictions
system.cpu.dtb.prefetch_faults                      0                       # Number of TLB faults due to prefetch
system.cpu.dtb.read_accesses                        0                       # DTB read accesses
system.cpu.dtb.read_hits                            0                       # DTB read hits
system.cpu.dtb.read_misses                          0                       # DTB read misses
system.cpu.dtb.stage2_mmu.stage2_tlb.accesses            0                       # DTB accesses
system.cpu.dtb.stage2_mmu.stage2_tlb.align_faults            0                       # Number of TLB faults due to alignment restrictions
system.cpu.dtb.stage2_mmu.stage2_tlb.domain_faults            0                       # Number of TLB faults due to domain restrictions
system.cpu.dtb.stage2_mmu.stage2_tlb.flush_entries            0                       # Number of entries that have been flushed from TLB
system.cpu.dtb.stage2_mmu.stage2_tlb.flush_tlb            0                       # Number of times complete TLB was flushed
system.cpu.dtb.stage2_mmu.stage2_tlb.flush_tlb_asid            0                       # Number of times TLB was flushed by ASID
system.cpu.dtb.stage2_mmu.stage2_tlb.flush_tlb_mva            0                       # Number of times TLB was flushed by MVA
system.cpu.dtb.stage2_mmu.stage2_tlb.flush_tlb_mva_asid            0                       # Number of times TLB was flushed by MVA & ASID
system.cpu.dtb.stage2_mmu.stage2_tlb.hits            0                       # DTB hits
system.cpu.dtb.stage2_mmu.stage2_tlb.inst_accesses            0                       # ITB inst accesses
system.cpu.dtb.stage2_mmu.stage2_tlb.inst_hits            0                       # ITB inst hits
system.cpu.dtb.stage2_mmu.stage2_tlb.inst_misses            0                       # ITB inst misses
system.cpu.dtb.stage2_mmu.stage2_tlb.misses            0                       # DTB misses
system.cpu.dtb.stage2_mmu.stage2_tlb.perms_faults            0                       # Number of TLB faults due to permissions restrictions
system.cpu.dtb.stage2_mmu.stage2_tlb.prefetch_faults            0                       # Number of TLB faults due to prefetch
system.cpu.dtb.stage2_mmu.stage2_tlb.read_accesses            0                       # DTB read accesses
system.cpu.dtb.stage2_mmu.stage2_tlb.read_hits            0                       # DTB read hits
system.cpu.dtb.stage2_mmu.stage2_tlb.read_misses            0                       # DTB read misses
system.cpu.dtb.stage2_mmu.stage2_tlb.walker.walkRequestOrigin_Requested::Data            0                       # Table walker requests started/completed, data/inst
system.cpu.dtb.stage2_mmu.stage2_tlb.walker.walkRequestOrigin_Requested::Inst            0                       # Table walker requests started/completed, data/inst
system.cpu.dtb.stage2_mmu.stage2_tlb.walker.walkRequestOrigin_Requested::total            0                       # Table walker requests started/completed, data/inst
system.cpu.dtb.stage2_mmu.stage2_tlb.walker.walkRequestOrigin_Completed::Data            0                       # Table walker requests started/completed, data/inst
system.cpu.dtb.stage2_mmu.stage2_tlb.walker.walkRequestOrigin_Completed::Inst            0                       # Table walker requests started/completed, data/inst
system.cpu.dtb.stage2_mmu.stage2_tlb.walker.walkRequestOrigin_Completed::total            0                       # Table walker requests started/completed, data/inst
system.cpu.dtb.stage2_mmu.stage2_tlb.walker.walkRequestOrigin::total            0                       # Table walker requests started/completed, data/inst
system.cpu.dtb.stage2_mmu.stage2_tlb.walker.walks            0                       # Table walker walks requested
system.cpu.dtb.stage2_mmu.stage2_tlb.write_accesses            0                       # DTB write accesses
system.cpu.dtb.stage2_mmu.stage2_tlb.write_hits            0                       # DTB write hits
system.cpu.dtb.stage2_mmu.stage2_tlb.write_misses            0                       # DTB write misses
system.cpu.dtb.walker.walkRequestOrigin_Requested::Data            0                       # Table walker requests started/completed, data/inst
system.cpu.dtb.walker.walkRequestOrigin_Requested::Inst            0                       # Table walker requests started/completed, data/inst
system.cpu.dtb.walker.walkRequestOrigin_Requested::total            0                       # Table walker requests started/completed, data/inst
system.cpu.dtb.walker.walkRequestOrigin_Completed::Data            0                       # Table walker requests started/completed, data/inst
system.cpu.dtb.walker.walkRequestOrigin_Completed::Inst            0                       # Table walker requests started/completed, data/inst
system.cpu.dtb.walker.walkRequestOrigin_Completed::total            0                       # Table walker requests started/completed, data/inst
system.cpu.dtb.walker.walkRequestOrigin::total            0                       # Table walker requests started/completed, data/inst
system.cpu.dtb.walker.walks                         0                       # Table walker walks requested
system.cpu.dtb.write_accesses                       0                       # DTB write accesses
system.cpu.dtb.write_hits                           0                       # DTB write hits
system.cpu.dtb.write_misses                         0                       # DTB write misses
system.cpu.fetch2.amo_instructions                  0                       # Number of memory atomic instructions successfully decoded
system.cpu.fetch2.fp_instructions                   0                       # Number of floating point instructions successfully decoded
system.cpu.fetch2.int_instructions           72088946                       # Number of integer instructions successfully decoded
system.cpu.fetch2.load_instructions          37181053                       # Number of memory load instructions successfully decoded
system.cpu.fetch2.store_instructions         14478647                       # Number of memory store instructions successfully decoded
system.cpu.fetch2.vec_instructions                165                       # Number of SIMD instructions successfully decoded
system.cpu.idleCycles                        28436328                       # Total number of cycles that the object has spent stopped
system.cpu.ipc                               0.372874                       # IPC: instructions per cycle
system.cpu.itb.accesses                             0                       # DTB accesses
system.cpu.itb.align_faults                         0                       # Number of TLB faults due to alignment restrictions
system.cpu.itb.domain_faults                        0                       # Number of TLB faults due to domain restrictions
system.cpu.itb.flush_entries                        0                       # Number of entries that have been flushed from TLB
system.cpu.itb.flush_tlb                            0                       # Number of times complete TLB was flushed
system.cpu.itb.flush_tlb_asid                       0                       # Number of times TLB was flushed by ASID
system.cpu.itb.flush_tlb_mva                        0                       # Number of times TLB was flushed by MVA
system.cpu.itb.flush_tlb_mva_asid                   0                       # Number of times TLB was flushed by MVA & ASID
system.cpu.itb.hits                                 0                       # DTB hits
system.cpu.itb.inst_accesses                        0                       # ITB inst accesses
system.cpu.itb.inst_hits                            0                       # ITB inst hits
system.cpu.itb.inst_misses                          0                       # ITB inst misses
system.cpu.itb.misses                               0                       # DTB misses
system.cpu.itb.perms_faults                         0                       # Number of TLB faults due to permissions restrictions
system.cpu.itb.prefetch_faults                      0                       # Number of TLB faults due to prefetch
system.cpu.itb.read_accesses                        0                       # DTB read accesses
system.cpu.itb.read_hits                            0                       # DTB read hits
system.cpu.itb.read_misses                          0                       # DTB read misses
system.cpu.itb.stage2_mmu.stage2_tlb.accesses            0                       # DTB accesses
system.cpu.itb.stage2_mmu.stage2_tlb.align_faults            0                       # Number of TLB faults due to alignment restrictions
system.cpu.itb.stage2_mmu.stage2_tlb.domain_faults            0                       # Number of TLB faults due to domain restrictions
system.cpu.itb.stage2_mmu.stage2_tlb.flush_entries            0                       # Number of entries that have been flushed from TLB
system.cpu.itb.stage2_mmu.stage2_tlb.flush_tlb            0                       # Number of times complete TLB was flushed
system.cpu.itb.stage2_mmu.stage2_tlb.flush_tlb_asid            0                       # Number of times TLB was flushed by ASID
system.cpu.itb.stage2_mmu.stage2_tlb.flush_tlb_mva            0                       # Number of times TLB was flushed by MVA
system.cpu.itb.stage2_mmu.stage2_tlb.flush_tlb_mva_asid            0                       # Number of times TLB was flushed by MVA & ASID
system.cpu.itb.stage2_mmu.stage2_tlb.hits            0                       # DTB hits
system.cpu.itb.stage2_mmu.stage2_tlb.inst_accesses            0                       # ITB inst accesses
system.cpu.itb.stage2_mmu.stage2_tlb.inst_hits            0                       # ITB inst hits
system.cpu.itb.stage2_mmu.stage2_tlb.inst_misses            0                       # ITB inst misses
system.cpu.itb.stage2_mmu.stage2_tlb.misses            0                       # DTB misses
system.cpu.itb.stage2_mmu.stage2_tlb.perms_faults            0                       # Number of TLB faults due to permissions restrictions
system.cpu.itb.stage2_mmu.stage2_tlb.prefetch_faults            0                       # Number of TLB faults due to prefetch
system.cpu.itb.stage2_mmu.stage2_tlb.read_accesses            0                       # DTB read accesses
system.cpu.itb.stage2_mmu.stage2_tlb.read_hits            0                       # DTB read hits
system.cpu.itb.stage2_mmu.stage2_tlb.read_misses            0                       # DTB read misses
system.cpu.itb.stage2_mmu.stage2_tlb.walker.walkRequestOrigin_Requested::Data            0                       # Table walker requests started/completed, data/inst
system.cpu.itb.stage2_mmu.stage2_tlb.walker.walkRequestOrigin_Requested::Inst            0                       # Table walker requests started/completed, data/inst
system.cpu.itb.stage2_mmu.stage2_tlb.walker.walkRequestOrigin_Requested::total            0                       # Table walker requests started/completed, data/inst
system.cpu.itb.stage2_mmu.stage2_tlb.walker.walkRequestOrigin_Completed::Data            0                       # Table walker requests started/completed, data/inst
system.cpu.itb.stage2_mmu.stage2_tlb.walker.walkRequestOrigin_Completed::Inst            0                       # Table walker requests started/completed, data/inst
system.cpu.itb.stage2_mmu.stage2_tlb.walker.walkRequestOrigin_Completed::total            0                       # Table walker requests started/completed, data/inst
system.cpu.itb.stage2_mmu.stage2_tlb.walker.walkRequestOrigin::total            0                       # Table walker requests started/completed, data/inst
system.cpu.itb.stage2_mmu.stage2_tlb.walker.walks            0                       # Table walker walks requested
system.cpu.itb.stage2_mmu.stage2_tlb.write_accesses            0                       # DTB write accesses
system.cpu.itb.stage2_mmu.stage2_tlb.write_hits            0                       # DTB write hits
system.cpu.itb.stage2_mmu.stage2_tlb.write_misses            0                       # DTB write misses
system.cpu.itb.walker.walkRequestOrigin_Requested::Data            0                       # Table walker requests started/completed, data/inst
system.cpu.itb.walker.walkRequestOrigin_Requested::Inst            0                       # Table walker requests started/completed, data/inst
system.cpu.itb.walker.walkRequestOrigin_Requested::total            0                       # Table walker requests started/completed, data/inst
system.cpu.itb.walker.walkRequestOrigin_Completed::Data            0                       # Table walker requests started/completed, data/inst
system.cpu.itb.walker.walkRequestOrigin_Completed::Inst            0                       # Table walker requests started/completed, data/inst
system.cpu.itb.walker.walkRequestOrigin_Completed::total            0                       # Table walker requests started/completed, data/inst
system.cpu.itb.walker.walkRequestOrigin::total            0                       # Table walker requests started/completed, data/inst
system.cpu.itb.walker.walks                         0                       # Table walker walks requested
system.cpu.itb.write_accesses                       0                       # DTB write accesses
system.cpu.itb.write_hits                           0                       # DTB write hits
system.cpu.itb.write_misses                         0                       # DTB write misses
system.cpu.numCycles                        268187280                       # number of cpu cycles simulated
system.cpu.numFetchSuspends                         0                       # Number of times Execute suspended instruction fetching
system.cpu.numWorkItemsCompleted                    0                       # number of work items this cpu completed
system.cpu.numWorkItemsStarted                      0                       # number of work items this cpu started
system.cpu.op_class_0::No_OpClass                   9      0.00%      0.00% # Class of committed instruction
system.cpu.op_class_0::IntAlu                64640826     63.48%     63.48% # Class of committed instruction
system.cpu.op_class_0::IntMult                    133      0.00%     63.48% # Class of committed instruction
system.cpu.op_class_0::IntDiv                       3      0.00%     63.48% # Class of committed instruction
system.cpu.op_class_0::FloatAdd                     0      0.00%     63.48% # Class of committed instruction
system.cpu.op_class_0::FloatCmp                     0      0.00%     63.48% # Class of committed instruction
system.cpu.op_class_0::FloatCvt                     0      0.00%     63.48% # Class of committed instruction
system.cpu.op_class_0::FloatMult                    0      0.00%     63.48% # Class of committed instruction
system.cpu.op_class_0::FloatMultAcc                 0      0.00%     63.48% # Class of committed instruction
system.cpu.op_class_0::FloatDiv                     0      0.00%     63.48% # Class of committed instruction
system.cpu.op_class_0::FloatMisc                    0      0.00%     63.48% # Class of committed instruction
system.cpu.op_class_0::FloatSqrt                    0      0.00%     63.48% # Class of committed instruction
system.cpu.op_class_0::SimdAdd                     29      0.00%     63.48% # Class of committed instruction
system.cpu.op_class_0::SimdAddAcc                   0      0.00%     63.48% # Class of committed instruction
system.cpu.op_class_0::SimdAlu                     34      0.00%     63.48% # Class of committed instruction
system.cpu.op_class_0::SimdCmp                     36      0.00%     63.48% # Class of committed instruction
system.cpu.op_class_0::SimdCvt                      0      0.00%     63.48% # Class of committed instruction
system.cpu.op_class_0::SimdMisc                    26      0.00%     63.48% # Class of committed instruction
system.cpu.op_class_0::SimdMult                     0      0.00%     63.48% # Class of committed instruction
system.cpu.op_class_0::SimdMultAcc                  0      0.00%     63.48% # Class of committed instruction
system.cpu.op_class_0::SimdShift                    0      0.00%     63.48% # Class of committed instruction
system.cpu.op_class_0::SimdShiftAcc                 0      0.00%     63.48% # Class of committed instruction
system.cpu.op_class_0::SimdDiv                      0      0.00%     63.48% # Class of committed instruction
system.cpu.op_class_0::SimdSqrt                     0      0.00%     63.48% # Class of committed instruction
system.cpu.op_class_0::SimdFloatAdd                 0      0.00%     63.48% # Class of committed instruction
system.cpu.op_class_0::SimdFloatAlu                 0      0.00%     63.48% # Class of committed instruction
system.cpu.op_class_0::SimdFloatCmp                 0      0.00%     63.48% # Class of committed instruction
system.cpu.op_class_0::SimdFloatCvt                 0      0.00%     63.48% # Class of committed instruction
system.cpu.op_class_0::SimdFloatDiv                 0      0.00%     63.48% # Class of committed instruction
system.cpu.op_class_0::SimdFloatMisc                0      0.00%     63.48% # Class of committed instruction
system.cpu.op_class_0::SimdFloatMult                0      0.00%     63.48% # Class of committed instruction
system.cpu.op_class_0::SimdFloatMultAcc             0      0.00%     63.48% # Class of committed instruction
system.cpu.op_class_0::SimdFloatSqrt                0      0.00%     63.48% # Class of committed instruction
system.cpu.op_class_0::SimdReduceAdd                0      0.00%     63.48% # Class of committed instruction
system.cpu.op_class_0::SimdReduceAlu                0      0.00%     63.48% # Class of committed instruction
system.cpu.op_class_0::SimdReduceCmp                0      0.00%     63.48% # Class of committed instruction
system.cpu.op_class_0::SimdFloatReduceAdd            0      0.00%     63.48% # Class of committed instruction
system.cpu.op_class_0::SimdFloatReduceCmp            0      0.00%     63.48% # Class of committed instruction
system.cpu.op_class_0::SimdAes                      0      0.00%     63.48% # Class of committed instruction
system.cpu.op_class_0::SimdAesMix                   0      0.00%     63.48% # Class of committed instruction
system.cpu.op_class_0::SimdSha1Hash                 0      0.00%     63.48% # Class of committed instruction
system.cpu.op_class_0::SimdSha1Hash2                0      0.00%     63.48% # Class of committed instruction
system.cpu.op_class_0::SimdSha256Hash               0      0.00%     63.48% # Class of committed instruction
system.cpu.op_class_0::SimdSha256Hash2              0      0.00%     63.48% # Class of committed instruction
system.cpu.op_class_0::SimdShaSigma2                0      0.00%     63.48% # Class of committed instruction
system.cpu.op_class_0::SimdShaSigma3                0      0.00%     63.48% # Class of committed instruction
system.cpu.op_class_0::SimdPredAlu                  0      0.00%     63.48% # Class of committed instruction
system.cpu.op_class_0::MemRead               26916802     26.43%     89.92% # Class of committed instruction
system.cpu.op_class_0::MemWrite              10267847     10.08%    100.00% # Class of committed instruction
system.cpu.op_class_0::FloatMemRead                 0      0.00%    100.00% # Class of committed instruction
system.cpu.op_class_0::FloatMemWrite                0      0.00%    100.00% # Class of committed instruction
system.cpu.op_class_0::IprAccess                    0      0.00%    100.00% # Class of committed instruction
system.cpu.op_class_0::InstPrefetch                 0      0.00%    100.00% # Class of committed instruction
system.cpu.op_class_0::total                101825745                       # Class of committed instruction
system.cpu.tickCycles                       239750952                       # Number of cycles that the object actually ticked
system.cpu.workload.numSyscalls                    23                       # Number of system calls
system.membus.snoop_filter.hit_multi_requests            0                       # Number of requests hitting in the snoop filter with multiple (>1) holders of the requested data.
system.membus.snoop_filter.hit_multi_snoops            0                       # Number of snoops hitting in the snoop filter with multiple (>1) holders of the requested data.
system.membus.snoop_filter.hit_single_requests        98760                       # Number of requests hitting in the snoop filter with a single holder of the requested data.
system.membus.snoop_filter.hit_single_snoops            0                       # Number of snoops hitting in the snoop filter with a single holder of the requested data.
system.membus.snoop_filter.tot_requests        230542                       # Total number of requests made to the snoop filter.
system.membus.snoop_filter.tot_snoops               0                       # Total number of snoops made to the snoop filter.
system.tol2bus.snoop_filter.hit_multi_requests            1                       # Number of requests hitting in the snoop filter with multiple (>1) holders of the requested data.
system.tol2bus.snoop_filter.hit_multi_snoops            0                       # Number of snoops hitting in the snoop filter with multiple (>1) holders of the requested data.
system.tol2bus.snoop_filter.hit_single_requests      1242473                       # Number of requests hitting in the snoop filter with a single holder of the requested data.
system.tol2bus.snoop_filter.hit_single_snoops          321                       # Number of snoops hitting in the snoop filter with a single holder of the requested data.
system.tol2bus.snoop_filter.tot_requests      2486224                       # Total number of requests made to the snoop filter.
system.tol2bus.snoop_filter.tot_snoops            321                       # Total number of snoops made to the snoop filter.
system.membus.trans_dist::ReadResp              42076                       # Transaction distribution
system.membus.trans_dist::WritebackDirty        85130                       # Transaction distribution
system.membus.trans_dist::CleanEvict            13630                       # Transaction distribution
system.membus.trans_dist::ReadExReq             89699                       # Transaction distribution
system.membus.trans_dist::ReadExResp            89699                       # Transaction distribution
system.membus.trans_dist::ReadSharedReq         42076                       # Transaction distribution
system.membus.trans_dist::InvalidateReq             7                       # Transaction distribution
system.membus.pkt_count_system.l2.mem_side::system.mem_ctrls.port       362317                       # Packet count per connected master and slave (bytes)
system.membus.pkt_count::total                 362317                       # Packet count per connected master and slave (bytes)
system.membus.pkt_size_system.l2.mem_side::system.mem_ctrls.port     13881920                       # Cumulative packet size per connected master and slave (bytes)
system.membus.pkt_size::total                13881920                       # Cumulative packet size per connected master and slave (bytes)
system.membus.snoops                                0                       # Total snoops (count)
system.membus.snoopTraffic                          0                       # Total snoop traffic (bytes)
system.membus.snoop_fanout::samples            131782                       # Request fanout histogram
system.membus.snoop_fanout::mean                    0                       # Request fanout histogram
system.membus.snoop_fanout::stdev                   0                       # Request fanout histogram
system.membus.snoop_fanout::underflows              0      0.00%      0.00% # Request fanout histogram
system.membus.snoop_fanout::0                  131782    100.00%    100.00% # Request fanout histogram
system.membus.snoop_fanout::1                       0      0.00%    100.00% # Request fanout histogram
system.membus.snoop_fanout::overflows               0      0.00%    100.00% # Request fanout histogram
system.membus.snoop_fanout::min_value               0                       # Request fanout histogram
system.membus.snoop_fanout::max_value               0                       # Request fanout histogram
system.membus.snoop_fanout::total              131782                       # Request fanout histogram
system.membus.reqLayer0.occupancy           603754000                       # Layer occupancy (ticks)
system.membus.reqLayer0.utilization               0.5                       # Layer utilization (%)
system.membus.respLayer1.occupancy          713769750                       # Layer occupancy (ticks)
system.membus.respLayer1.utilization              0.5                       # Layer utilization (%)
system.membus.power_state.pwrStateResidencyTicks::UNDEFINED 134093640000                       # Cumulative time (in ticks) in various power states
system.tol2bus.trans_dist::ReadResp            835267                       # Transaction distribution
system.tol2bus.trans_dist::WritebackDirty       822652                       # Transaction distribution
system.tol2bus.trans_dist::WritebackClean          477                       # Transaction distribution
system.tol2bus.trans_dist::CleanEvict          518425                       # Transaction distribution
system.tol2bus.trans_dist::ReadExReq           408477                       # Transaction distribution
system.tol2bus.trans_dist::ReadExResp          408477                       # Transaction distribution
system.tol2bus.trans_dist::ReadCleanReq           731                       # Transaction distribution
system.tol2bus.trans_dist::ReadSharedReq       834536                       # Transaction distribution
system.tol2bus.trans_dist::InvalidateReq            7                       # Transaction distribution
system.tol2bus.trans_dist::InvalidateResp            7                       # Transaction distribution
system.tol2bus.pkt_count_system.cpu.icache.mem_side::system.l2.cpu_side         1939                       # Packet count per connected master and slave (bytes)
system.tol2bus.pkt_count_system.cpu.dcache.mem_side::system.l2.cpu_side      3728036                       # Packet count per connected master and slave (bytes)
system.tol2bus.pkt_count::total               3729975                       # Packet count per connected master and slave (bytes)
system.tol2bus.pkt_size_system.cpu.icache.mem_side::system.l2.cpu_side        77312                       # Cumulative packet size per connected master and slave (bytes)
system.tol2bus.pkt_size_system.cpu.dcache.mem_side::system.l2.cpu_side    126754240                       # Cumulative packet size per connected master and slave (bytes)
system.tol2bus.pkt_size::total              126831552                       # Cumulative packet size per connected master and slave (bytes)
system.tol2bus.snoops                           99081                       # Total snoops (count)
system.tol2bus.snoopTraffic                   5448320                       # Total snoop traffic (bytes)
system.tol2bus.snoop_fanout::samples          1342832                       # Request fanout histogram
system.tol2bus.snoop_fanout::mean            0.000240                       # Request fanout histogram
system.tol2bus.snoop_fanout::stdev           0.015483                       # Request fanout histogram
system.tol2bus.snoop_fanout::underflows             0      0.00%      0.00% # Request fanout histogram
system.tol2bus.snoop_fanout::0                1342510     99.98%     99.98% # Request fanout histogram
system.tol2bus.snoop_fanout::1                    322      0.02%    100.00% # Request fanout histogram
system.tol2bus.snoop_fanout::2                      0      0.00%    100.00% # Request fanout histogram
system.tol2bus.snoop_fanout::overflows              0      0.00%    100.00% # Request fanout histogram
system.tol2bus.snoop_fanout::min_value              0                       # Request fanout histogram
system.tol2bus.snoop_fanout::max_value              1                       # Request fanout histogram
system.tol2bus.snoop_fanout::total            1342832                       # Request fanout histogram
system.tol2bus.reqLayer0.occupancy         1981111000                       # Layer occupancy (ticks)
system.tol2bus.reqLayer0.utilization              1.5                       # Layer utilization (%)
system.tol2bus.respLayer1.occupancy        1864523000                       # Layer occupancy (ticks)
system.tol2bus.respLayer1.utilization             1.4                       # Layer utilization (%)
system.tol2bus.respLayer0.occupancy           1096500                       # Layer occupancy (ticks)
system.tol2bus.respLayer0.utilization             0.0                       # Layer utilization (%)
system.tol2bus.power_state.pwrStateResidencyTicks::UNDEFINED 134093640000                       # Cumulative time (in ticks) in various power states
system.voltage_domain.voltage                       1                       # Voltage in Volts
system.clk_domain.clock                          1000                       # Clock period in ticks
system.l2.demand_hits::.cpu.inst                   86                       # number of demand (read+write) hits
system.l2.demand_hits::.cpu.data              1111883                       # number of demand (read+write) hits
system.l2.demand_hits::total                  1111969                       # number of demand (read+write) hits
system.l2.overall_hits::.cpu.inst                  86                       # number of overall hits
system.l2.overall_hits::.cpu.data             1111883                       # number of overall hits
system.l2.overall_hits::total                 1111969                       # number of overall hits
system.l2.demand_misses::.cpu.inst                645                       # number of demand (read+write) misses
system.l2.demand_misses::.cpu.data             131130                       # number of demand (read+write) misses
system.l2.demand_misses::total                 131775                       # number of demand (read+write) misses
system.l2.overall_misses::.cpu.inst               645                       # number of overall misses
system.l2.overall_misses::.cpu.data            131130                       # number of overall misses
system.l2.overall_misses::total                131775                       # number of overall misses
system.l2.demand_miss_latency::.cpu.inst     50146500                       # number of demand (read+write) miss cycles
system.l2.demand_miss_latency::.cpu.data  11296313500                       # number of demand (read+write) miss cycles
system.l2.demand_miss_latency::total      11346460000                       # number of demand (read+write) miss cycles
system.l2.overall_miss_latency::.cpu.inst     50146500                       # number of overall miss cycles
system.l2.overall_miss_latency::.cpu.data  11296313500                       # number of overall miss cycles
system.l2.overall_miss_latency::total     11346460000                       # number of overall miss cycles
system.l2.demand_accesses::.cpu.inst              731                       # number of demand (read+write) accesses
system.l2.demand_accesses::.cpu.data          1243013                       # number of demand (read+write) accesses
system.l2.demand_accesses::total              1243744                       # number of demand (read+write) accesses
system.l2.overall_accesses::.cpu.inst             731                       # number of overall (read+write) accesses
system.l2.overall_accesses::.cpu.data         1243013                       # number of overall (read+write) accesses
system.l2.overall_accesses::total             1243744                       # number of overall (read+write) accesses
system.l2.demand_miss_rate::.cpu.inst        0.882353                       # miss rate for demand accesses
system.l2.demand_miss_rate::.cpu.data        0.105494                       # miss rate for demand accesses
system.l2.demand_miss_rate::total            0.105950                       # miss rate for demand accesses
system.l2.overall_miss_rate::.cpu.inst       0.882353                       # miss rate for overall accesses
system.l2.overall_miss_rate::.cpu.data       0.105494                       # miss rate for overall accesses
system.l2.overall_miss_rate::total           0.105950                       # miss rate for overall accesses
system.l2.demand_avg_miss_latency::.cpu.inst 77746.511628                       # average overall miss latency
system.l2.demand_avg_miss_latency::.cpu.data 86145.912453                       # average overall miss latency
system.l2.demand_avg_miss_latency::total 86104.799848                       # average overall miss latency
system.l2.overall_avg_miss_latency::.cpu.inst 77746.511628                       # average overall miss latency
system.l2.overall_avg_miss_latency::.cpu.data 86145.912453                       # average overall miss latency
system.l2.overall_avg_miss_latency::total 86104.799848                       # average overall miss latency
system.l2.blocked_cycles::no_mshrs                  0                       # number of cycles access was blocked
system.l2.blocked_cycles::no_targets                0                       # number of cycles access was blocked
system.l2.blocked::no_mshrs                         0                       # number of cycles access was blocked
system.l2.blocked::no_targets                       0                       # number of cycles access was blocked
system.l2.avg_blocked_cycles::no_mshrs            nan                       # average number of cycles each access was blocked
system.l2.avg_blocked_cycles::no_targets          nan                       # average number of cycles each access was blocked
system.l2.writebacks::.writebacks               85130                       # number of writebacks
system.l2.writebacks::total                     85130                       # number of writebacks
system.l2.demand_mshr_misses::.cpu.inst           645                       # number of demand (read+write) MSHR misses
system.l2.demand_mshr_misses::.cpu.data        131130                       # number of demand (read+write) MSHR misses
system.l2.demand_mshr_misses::total            131775                       # number of demand (read+write) MSHR misses
system.l2.overall_mshr_misses::.cpu.inst          645                       # number of overall MSHR misses
system.l2.overall_mshr_misses::.cpu.data       131130                       # number of overall MSHR misses
system.l2.overall_mshr_misses::total           131775                       # number of overall MSHR misses
system.l2.demand_mshr_miss_latency::.cpu.inst     43696500                       # number of demand (read+write) MSHR miss cycles
system.l2.demand_mshr_miss_latency::.cpu.data   9985013500                       # number of demand (read+write) MSHR miss cycles
system.l2.demand_mshr_miss_latency::total  10028710000                       # number of demand (read+write) MSHR miss cycles
system.l2.overall_mshr_miss_latency::.cpu.inst     43696500                       # number of overall MSHR miss cycles
system.l2.overall_mshr_miss_latency::.cpu.data   9985013500                       # number of overall MSHR miss cycles
system.l2.overall_mshr_miss_latency::total  10028710000                       # number of overall MSHR miss cycles
system.l2.demand_mshr_miss_rate::.cpu.inst     0.882353                       # mshr miss rate for demand accesses
system.l2.demand_mshr_miss_rate::.cpu.data     0.105494                       # mshr miss rate for demand accesses
system.l2.demand_mshr_miss_rate::total       0.105950                       # mshr miss rate for demand accesses
system.l2.overall_mshr_miss_rate::.cpu.inst     0.882353                       # mshr miss rate for overall accesses
system.l2.overall_mshr_miss_rate::.cpu.data     0.105494                       # mshr miss rate for overall accesses
system.l2.overall_mshr_miss_rate::total      0.105950                       # mshr miss rate for overall accesses
system.l2.demand_avg_mshr_miss_latency::.cpu.inst 67746.511628                       # average overall mshr miss latency
system.l2.demand_avg_mshr_miss_latency::.cpu.data 76145.912453                       # average overall mshr miss latency
system.l2.demand_avg_mshr_miss_latency::total 76104.799848                       # average overall mshr miss latency
system.l2.overall_avg_mshr_miss_latency::.cpu.inst 67746.511628                       # average overall mshr miss latency
system.l2.overall_avg_mshr_miss_latency::.cpu.data 76145.912453                       # average overall mshr miss latency
system.l2.overall_avg_mshr_miss_latency::total 76104.799848                       # average overall mshr miss latency
system.l2.replacements                          99081                       # number of replacements
system.l2.WritebackDirty_hits::.writebacks       737522                       # number of WritebackDirty hits
system.l2.WritebackDirty_hits::total           737522                       # number of WritebackDirty hits
system.l2.WritebackDirty_accesses::.writebacks       737522                       # number of WritebackDirty accesses(hits+misses)
system.l2.WritebackDirty_accesses::total       737522                       # number of WritebackDirty accesses(hits+misses)
system.l2.WritebackClean_hits::.writebacks          477                       # number of WritebackClean hits
system.l2.WritebackClean_hits::total              477                       # number of WritebackClean hits
system.l2.WritebackClean_accesses::.writebacks          477                       # number of WritebackClean accesses(hits+misses)
system.l2.WritebackClean_accesses::total          477                       # number of WritebackClean accesses(hits+misses)
system.l2.ReadExReq_hits::.cpu.data            318778                       # number of ReadExReq hits
system.l2.ReadExReq_hits::total                318778                       # number of ReadExReq hits
system.l2.ReadExReq_misses::.cpu.data           89699                       # number of ReadExReq misses
system.l2.ReadExReq_misses::total               89699                       # number of ReadExReq misses
system.l2.ReadExReq_miss_latency::.cpu.data   7920059500                       # number of ReadExReq miss cycles
system.l2.ReadExReq_miss_latency::total    7920059500                       # number of ReadExReq miss cycles
system.l2.ReadExReq_accesses::.cpu.data        408477                       # number of ReadExReq accesses(hits+misses)
system.l2.ReadExReq_accesses::total            408477                       # number of ReadExReq accesses(hits+misses)
system.l2.ReadExReq_miss_rate::.cpu.data     0.219594                       # miss rate for ReadExReq accesses
system.l2.ReadExReq_miss_rate::total         0.219594                       # miss rate for ReadExReq accesses
system.l2.ReadExReq_avg_miss_latency::.cpu.data 88295.962051                       # average ReadExReq miss latency
system.l2.ReadExReq_avg_miss_latency::total 88295.962051                       # average ReadExReq miss latency
system.l2.ReadExReq_mshr_misses::.cpu.data        89699                       # number of ReadExReq MSHR misses
system.l2.ReadExReq_mshr_misses::total          89699                       # number of ReadExReq MSHR misses
system.l2.ReadExReq_mshr_miss_latency::.cpu.data   7023069500                       # number of ReadExReq MSHR miss cycles
system.l2.ReadExReq_mshr_miss_latency::total   7023069500                       # number of ReadExReq MSHR miss cycles
system.l2.ReadExReq_mshr_miss_rate::.cpu.data     0.219594                       # mshr miss rate for ReadExReq accesses
system.l2.ReadExReq_mshr_miss_rate::total     0.219594                       # mshr miss rate for ReadExReq accesses
system.l2.ReadExReq_avg_mshr_miss_latency::.cpu.data 78295.962051                       # average ReadExReq mshr miss latency
system.l2.ReadExReq_avg_mshr_miss_latency::total 78295.962051                       # average ReadExReq mshr miss latency
system.l2.ReadCleanReq_hits::.cpu.inst             86                       # number of ReadCleanReq hits
system.l2.ReadCleanReq_hits::total                 86                       # number of ReadCleanReq hits
system.l2.ReadCleanReq_misses::.cpu.inst          645                       # number of ReadCleanReq misses
system.l2.ReadCleanReq_misses::total              645                       # number of ReadCleanReq misses
system.l2.ReadCleanReq_miss_latency::.cpu.inst     50146500                       # number of ReadCleanReq miss cycles
system.l2.ReadCleanReq_miss_latency::total     50146500                       # number of ReadCleanReq miss cycles
system.l2.ReadCleanReq_accesses::.cpu.inst          731                       # number of ReadCleanReq accesses(hits+misses)
system.l2.ReadCleanReq_accesses::total            731                       # number of ReadCleanReq accesses(hits+misses)
system.l2.ReadCleanReq_miss_rate::.cpu.inst     0.882353                       # miss rate for ReadCleanReq accesses
system.l2.ReadCleanReq_miss_rate::total      0.882353                       # miss rate for ReadCleanReq accesses
system.l2.ReadCleanReq_avg_miss_latency::.cpu.inst 77746.511628                       # average ReadCleanReq miss latency
system.l2.ReadCleanReq_avg_miss_latency::total 77746.511628                       # average ReadCleanReq miss latency
system.l2.ReadCleanReq_mshr_misses::.cpu.inst          645                       # number of ReadCleanReq MSHR misses
system.l2.ReadCleanReq_mshr_misses::total          645                       # number of ReadCleanReq MSHR misses
system.l2.ReadCleanReq_mshr_miss_latency::.cpu.inst     43696500                       # number of ReadCleanReq MSHR miss cycles
system.l2.ReadCleanReq_mshr_miss_latency::total     43696500                       # number of ReadCleanReq MSHR miss cycles
system.l2.ReadCleanReq_mshr_miss_rate::.cpu.inst     0.882353                       # mshr miss rate for ReadCleanReq accesses
system.l2.ReadCleanReq_mshr_miss_rate::total     0.882353                       # mshr miss rate for ReadCleanReq accesses
system.l2.ReadCleanReq_avg_mshr_miss_latency::.cpu.inst 67746.511628                       # average ReadCleanReq mshr miss latency
system.l2.ReadCleanReq_avg_mshr_miss_latency::total 67746.511628                       # average ReadCleanReq mshr miss latency
system.l2.ReadSharedReq_hits::.cpu.data        793105                       # number of ReadSharedReq hits
system.l2.ReadSharedReq_hits::total            793105                       # number of ReadSharedReq hits
system.l2.ReadSharedReq_misses::.cpu.data        41431                       # number of ReadSharedReq misses
system.l2.ReadSharedReq_misses::total           41431                       # number of ReadSharedReq misses
system.l2.ReadSharedReq_miss_latency::.cpu.data   3376254000                       # number of ReadSharedReq miss cycles
system.l2.ReadSharedReq_miss_latency::total   3376254000                       # number of ReadSharedReq miss cycles
system.l2.ReadSharedReq_accesses::.cpu.data       834536                       # number of ReadSharedReq accesses(hits+misses)
system.l2.ReadSharedReq_accesses::total        834536                       # number of ReadSharedReq accesses(hits+misses)
system.l2.ReadSharedReq_miss_rate::.cpu.data     0.049646                       # miss rate for ReadSharedReq accesses
system.l2.ReadSharedReq_miss_rate::total     0.049646                       # miss rate for ReadSharedReq accesses
system.l2.ReadSharedReq_avg_miss_latency::.cpu.data 81491.009148                       # average ReadSharedReq miss latency
system.l2.ReadSharedReq_avg_miss_latency::total 81491.009148                       # average ReadSharedReq miss latency
system.l2.ReadSharedReq_mshr_misses::.cpu.data        41431                       # number of ReadSharedReq MSHR misses
system.l2.ReadSharedReq_mshr_misses::total        41431                       # number of ReadSharedReq MSHR misses
system.l2.ReadSharedReq_mshr_miss_latency::.cpu.data   2961944000                       # number of ReadSharedReq MSHR miss cycles
system.l2.ReadSharedReq_mshr_miss_latency::total   2961944000                       # number of ReadSharedReq MSHR miss cycles
system.l2.ReadSharedReq_mshr_miss_rate::.cpu.data     0.049646                       # mshr miss rate for ReadSharedReq accesses
system.l2.ReadSharedReq_mshr_miss_rate::total     0.049646                       # mshr miss rate for ReadSharedReq accesses
system.l2.ReadSharedReq_avg_mshr_miss_latency::.cpu.data 71491.009148                       # average ReadSharedReq mshr miss latency
system.l2.ReadSharedReq_avg_mshr_miss_latency::total 71491.009148                       # average ReadSharedReq mshr miss latency
system.l2.InvalidateReq_misses::.cpu.data            7                       # number of InvalidateReq misses
system.l2.InvalidateReq_misses::total               7                       # number of InvalidateReq misses
system.l2.InvalidateReq_accesses::.cpu.data            7                       # number of InvalidateReq accesses(hits+misses)
system.l2.InvalidateReq_accesses::total             7                       # number of InvalidateReq accesses(hits+misses)
system.l2.InvalidateReq_miss_rate::.cpu.data            1                       # miss rate for InvalidateReq accesses
system.l2.InvalidateReq_miss_rate::total            1                       # miss rate for InvalidateReq accesses
system.l2.InvalidateReq_mshr_misses::.cpu.data            7                       # number of InvalidateReq MSHR misses
system.l2.InvalidateReq_mshr_misses::total            7                       # number of InvalidateReq MSHR misses
system.l2.InvalidateReq_mshr_miss_latency::.cpu.data       133500                       # number of InvalidateReq MSHR miss cycles
system.l2.InvalidateReq_mshr_miss_latency::total       133500                       # number of InvalidateReq MSHR miss cycles
system.l2.InvalidateReq_mshr_miss_rate::.cpu.data            1                       # mshr miss rate for InvalidateReq accesses
system.l2.InvalidateReq_mshr_miss_rate::total            1                       # mshr miss rate for InvalidateReq accesses
system.l2.InvalidateReq_avg_mshr_miss_latency::.cpu.data 19071.428571                       # average InvalidateReq mshr miss latency
system.l2.InvalidateReq_avg_mshr_miss_latency::total 19071.428571                       # average InvalidateReq mshr miss latency
system.l2.power_state.pwrStateResidencyTicks::UNDEFINED 134093640000                       # Cumulative time (in ticks) in various power states
system.l2.tags.tagsinuse                 27479.978774                       # Cycle average of tags in use
system.l2.tags.total_refs                     2486216                       # Total number of references to valid blocks.
system.l2.tags.sampled_refs                    131849                       # Sample count of references to valid blocks.
system.l2.tags.avg_refs                     18.856540                       # Average number of references to valid blocks.
system.l2.tags.warmup_cycle                     77000                       # Cycle when the warmup percentage was hit.
system.l2.tags.occ_blocks::.writebacks      11.136312                       # Average occupied blocks per requestor
system.l2.tags.occ_blocks::.cpu.inst       151.402607                       # Average occupied blocks per requestor
system.l2.tags.occ_blocks::.cpu.data     27317.439855                       # Average occupied blocks per requestor
system.l2.tags.occ_percent::.writebacks      0.000340                       # Average percentage of cache occupancy
system.l2.tags.occ_percent::.cpu.inst        0.004620                       # Average percentage of cache occupancy
system.l2.tags.occ_percent::.cpu.data        0.833662                       # Average percentage of cache occupancy
system.l2.tags.occ_percent::total            0.838622                       # Average percentage of cache occupancy
system.l2.tags.occ_task_id_blocks::1024         32768                       # Occupied blocks per task id
system.l2.tags.age_task_id_blocks_1024::2          298                       # Occupied blocks per task id
system.l2.tags.age_task_id_blocks_1024::3         3906                       # Occupied blocks per task id
system.l2.tags.age_task_id_blocks_1024::4        28564                       # Occupied blocks per task id
system.l2.tags.occ_task_id_percent::1024            1                       # Percentage of cache occupancy per task id
system.l2.tags.tag_accesses                  20021633                       # Number of tag accesses
system.l2.tags.data_accesses                 20021633                       # Number of data accesses
system.l2.tags.power_state.pwrStateResidencyTicks::UNDEFINED 134093640000                       # Cumulative time (in ticks) in various power states
system.cpu_voltage_domain.voltage                   1                       # Voltage in Volts
system.mem_ctrls.bytes_read::.cpu.inst          41280                       # Number of bytes read from this memory
system.mem_ctrls.bytes_read::.cpu.data        8392320                       # Number of bytes read from this memory
system.mem_ctrls.bytes_read::total            8433600                       # Number of bytes read from this memory
system.mem_ctrls.bytes_inst_read::.cpu.inst        41280                       # Number of instructions bytes read from this memory
system.mem_ctrls.bytes_inst_read::total         41280                       # Number of instructions bytes read from this memory
system.mem_ctrls.bytes_written::.writebacks      5448320                       # Number of bytes written to this memory
system.mem_ctrls.bytes_written::total         5448320                       # Number of bytes written to this memory
system.mem_ctrls.num_reads::.cpu.inst             645                       # Number of read requests responded to by this memory
system.mem_ctrls.num_reads::.cpu.data          131130                       # Number of read requests responded to by this memory
system.mem_ctrls.num_reads::total              131775                       # Number of read requests responded to by this memory
system.mem_ctrls.num_writes::.writebacks        85130                       # Number of write requests responded to by this memory
system.mem_ctrls.num_writes::total              85130                       # Number of write requests responded to by this memory
system.mem_ctrls.bw_read::.cpu.inst            307845                       # Total read bandwidth from this memory (bytes/s)
system.mem_ctrls.bw_read::.cpu.data          62585519                       # Total read bandwidth from this memory (bytes/s)
system.mem_ctrls.bw_read::total              62893363                       # Total read bandwidth from this memory (bytes/s)
system.mem_ctrls.bw_inst_read::.cpu.inst       307845                       # Instruction read bandwidth from this memory (bytes/s)
system.mem_ctrls.bw_inst_read::total           307845                       # Instruction read bandwidth from this memory (bytes/s)
system.mem_ctrls.bw_write::.writebacks       40630711                       # Write bandwidth from this memory (bytes/s)
system.mem_ctrls.bw_write::total             40630711                       # Write bandwidth from this memory (bytes/s)
system.mem_ctrls.bw_total::.writebacks       40630711                       # Total bandwidth to/from this memory (bytes/s)
system.mem_ctrls.bw_total::.cpu.inst           307845                       # Total bandwidth to/from this memory (bytes/s)
system.mem_ctrls.bw_total::.cpu.data         62585519                       # Total bandwidth to/from this memory (bytes/s)
system.mem_ctrls.bw_total::total            103524075                       # Total bandwidth to/from this memory (bytes/s)
system.mem_ctrls.avgPriority_.writebacks::samples     85130.00                       # Average QoS priority value for accepted requests
system.mem_ctrls.avgPriority_.cpu.inst::samples       645.00                       # Average QoS priority value for accepted requests
system.mem_ctrls.avgPriority_.cpu.data::samples    131033.00                       # Average QoS priority value for accepted requests
system.mem_ctrls.priorityMinLatency      0.000000018750                       # per QoS priority minimum request to response latency (s)
system.mem_ctrls.priorityMaxLatency      0.005750572500                       # per QoS priority maximum request to response latency (s)
system.mem_ctrls.numReadWriteTurnArounds         4910                       # Number of turnarounds from READ to WRITE
system.mem_ctrls.numWriteReadTurnArounds         4910                       # Number of turnarounds from WRITE to READ
system.mem_ctrls.numStayReadState              378341                       # Number of times bus staying in READ state
system.mem_ctrls.numStayWriteState              80318                       # Number of times bus staying in WRITE state
system.mem_ctrls.readReqs                      131775                       # Number of read requests accepted
system.mem_ctrls.writeReqs                      85130                       # Number of write requests accepted
system.mem_ctrls.readBursts                    131775                       # Number of DRAM read bursts, including those serviced by the write queue
system.mem_ctrls.writeBursts                    85130                       # Number of DRAM write bursts, including those merged in the write queue
system.mem_ctrls.servicedByWrQ                     97                       # Number of DRAM read bursts serviced by the write queue
system.mem_ctrls.mergedWrBursts                     0                       # Number of DRAM write bursts merged with an existing one
system.mem_ctrls.neitherReadNorWriteReqs            0                       # Number of requests that are neither read nor write
system.mem_ctrls.perBankRdBursts::0              8157                       # Per bank write bursts
system.mem_ctrls.perBankRdBursts::1              8832                       # Per bank write bursts
system.mem_ctrls.perBankRdBursts::2              8464                       # Per bank write bursts
system.mem_ctrls.perBankRdBursts::3              8373                       # Per bank write bursts
system.mem_ctrls.perBankRdBursts::4              7785                       # Per bank write bursts
system.mem_ctrls.perBankRdBursts::5              8586                       # Per bank write bursts
system.mem_ctrls.perBankRdBursts::6              7960                       # Per bank write bursts
system.mem_ctrls.perBankRdBursts::7              7933                       # Per bank write bursts
system.mem_ctrls.perBankRdBursts::8              7603                       # Per bank write bursts
system.mem_ctrls.perBankRdBursts::9              7974                       # Per bank write bursts
system.mem_ctrls.perBankRdBursts::10             7876                       # Per bank write bursts
system.mem_ctrls.perBankRdBursts::11             8372                       # Per bank write bursts
system.mem_ctrls.perBankRdBursts::12             8329                       # Per bank write bursts
system.mem_ctrls.perBankRdBursts::13             8572                       # Per bank write bursts
system.mem_ctrls.perBankRdBursts::14             8597                       # Per bank write bursts
system.mem_ctrls.perBankRdBursts::15             8265                       # Per bank write bursts
system.mem_ctrls.perBankWrBursts::0              5146                       # Per bank write bursts
system.mem_ctrls.perBankWrBursts::1              5700                       # Per bank write bursts
system.mem_ctrls.perBankWrBursts::2              5498                       # Per bank write bursts
system.mem_ctrls.perBankWrBursts::3              5527                       # Per bank write bursts
system.mem_ctrls.perBankWrBursts::4              5040                       # Per bank write bursts
system.mem_ctrls.perBankWrBursts::5              5743                       # Per bank write bursts
system.mem_ctrls.perBankWrBursts::6              5169                       # Per bank write bursts
system.mem_ctrls.perBankWrBursts::7              5171                       # Per bank write bursts
system.mem_ctrls.perBankWrBursts::8              4745                       # Per bank write bursts
system.mem_ctrls.perBankWrBursts::9              5074                       # Per bank write bursts
system.mem_ctrls.perBankWrBursts::10             5068                       # Per bank write bursts
system.mem_ctrls.perBankWrBursts::11             5475                       # Per bank write bursts
system.mem_ctrls.perBankWrBursts::12             5453                       # Per bank write bursts
system.mem_ctrls.perBankWrBursts::13             5509                       # Per bank write bursts
system.mem_ctrls.perBankWrBursts::14             5488                       # Per bank write bursts
system.mem_ctrls.perBankWrBursts::15             5307                       # Per bank write bursts
system.mem_ctrls.avgRdQLen                       1.04                       # Average read queue length when enqueuing
system.mem_ctrls.avgWrQLen                      24.61                       # Average write queue length when enqueuing
system.mem_ctrls.totQLat                   2132386250                       # Total ticks spent queuing
system.mem_ctrls.totBusLat                  658390000                       # Total ticks spent in databus transfers
system.mem_ctrls.totMemAccLat              4601348750                       # Total ticks spent from burst creation until serviced by the DRAM
system.mem_ctrls.avgQLat                     16193.94                       # Average queueing delay per DRAM burst
system.mem_ctrls.avgBusLat                    5000.00                       # Average bus latency per DRAM burst
system.mem_ctrls.avgMemAccLat                34943.94                       # Average memory access latency per DRAM burst
system.mem_ctrls.numRdRetry                         0                       # Number of times read queue was full causing retry
system.mem_ctrls.numWrRetry                         0                       # Number of times write queue was full causing retry
system.mem_ctrls.readRowHits                    64237                       # Number of row buffer hits during reads
system.mem_ctrls.writeRowHits                   31402                       # Number of row buffer hits during writes
system.mem_ctrls.readRowHitRate                 48.78                       # Row buffer hit rate for reads
system.mem_ctrls.writeRowHitRate                36.89                       # Row buffer hit rate for writes
system.mem_ctrls.readPktSize::0                     0                       # Read request sizes (log2)
system.mem_ctrls.readPktSize::1                     0                       # Read request sizes (log2)
system.mem_ctrls.readPktSize::2                     0                       # Read request sizes (log2)
system.mem_ctrls.readPktSize::3                     0                       # Read request sizes (log2)
system.mem_ctrls.readPktSize::4                     0                       # Read request sizes (log2)
system.mem_ctrls.readPktSize::5                     0                       # Read request sizes (log2)
system.mem_ctrls.readPktSize::6                131775                       # Read request sizes (log2)
system.mem_ctrls.writePktSize::0                    0                       # Write request sizes (log2)
system.mem_ctrls.writePktSize::1                    0                       # Write request sizes (log2)
system.mem_ctrls.writePktSize::2                    0                       # Write request sizes (log2)
system.mem_ctrls.writePktSize::3                    0                       # Write request sizes (log2)
system.mem_ctrls.writePktSize::4                    0                       # Write request sizes (log2)
system.mem_ctrls.writePktSize::5                    0                       # Write request sizes (log2)
system.mem_ctrls.writePktSize::6                85130                       # Write request sizes (log2)
system.mem_ctrls.rdQLenPdf::0                  118871                       # What read queue length does an incoming req see
system.mem_ctrls.rdQLenPdf::1                   12795                       # What read queue length does an incoming req see
system.mem_ctrls.rdQLenPdf::2                      12                       # What read queue length does an incoming req see
system.mem_ctrls.rdQLenPdf::3                       0                       # What read queue length does an incoming req see
system.mem_ctrls.rdQLenPdf::4                       0                       # What read queue length does an incoming req see
system.mem_ctrls.rdQLenPdf::5                       0                       # What read queue length does an incoming req see
system.mem_ctrls.rdQLenPdf::6                       0                       # What read queue length does an incoming req see
system.mem_ctrls.rdQLenPdf::7                       0                       # What read queue length does an incoming req see
system.mem_ctrls.rdQLenPdf::8                       0                       # What read queue length does an incoming req see
system.mem_ctrls.rdQLenPdf::9                       0                       # What read queue length does an incoming req see
system.mem_ctrls.rdQLenPdf::10                      0                       # What read queue length does an incoming req see
system.mem_ctrls.rdQLenPdf::11                      0                       # What read queue length does an incoming req see
system.mem_ctrls.rdQLenPdf::12                      0                       # What read queue length does an incoming req see
system.mem_ctrls.rdQLenPdf::13                      0                       # What read queue length does an incoming req see
system.mem_ctrls.rdQLenPdf::14                      0                       # What read queue length does an incoming req see
system.mem_ctrls.rdQLenPdf::15                      0                       # What read queue length does an incoming req see
system.mem_ctrls.rdQLenPdf::16                      0                       # What read queue length does an incoming req see
system.mem_ctrls.rdQLenPdf::17                      0                       # What read queue length does an incoming req see
system.mem_ctrls.rdQLenPdf::18                      0                       # What read queue length does an incoming req see
system.mem_ctrls.rdQLenPdf::19                      0                       # What read queue length does an incoming req see
system.mem_ctrls.rdQLenPdf::20                      0                       # What read queue length does an incoming req see
system.mem_ctrls.rdQLenPdf::21                      0                       # What read queue length does an incoming req see
system.mem_ctrls.rdQLenPdf::22                      0                       # What read queue length does an incoming req see
system.mem_ctrls.rdQLenPdf::23                      0                       # What read queue length does an incoming req see
system.mem_ctrls.rdQLenPdf::24                      0                       # What read queue length does an incoming req see
system.mem_ctrls.rdQLenPdf::25                      0                       # What read queue length does an incoming req see
system.mem_ctrls.rdQLenPdf::26                      0                       # What read queue length does an incoming req see
system.mem_ctrls.rdQLenPdf::27                      0                       # What read queue length does an incoming req see
system.mem_ctrls.rdQLenPdf::28                      0                       # What read queue length does an incoming req see
system.mem_ctrls.rdQLenPdf::29                      0                       # What read queue length does an incoming req see
system.mem_ctrls.rdQLenPdf::30                      0                       # What read queue length does an incoming req see
system.mem_ctrls.rdQLenPdf::31                      0                       # What read queue length does an incoming req see
system.mem_ctrls.wrQLenPdf::0                       1                       # What write queue length does an incoming req see
system.mem_ctrls.wrQLenPdf::1                       1                       # What write queue length does an incoming req see
system.mem_ctrls.wrQLenPdf::2                       1                       # What write queue length does an incoming req see
system.mem_ctrls.wrQLenPdf::3                       1                       # What write queue length does an incoming req see
system.mem_ctrls.wrQLenPdf::4                       1                       # What write queue length does an incoming req see
system.mem_ctrls.wrQLenPdf::5                       1                       # What write queue length does an incoming req see
system.mem_ctrls.wrQLenPdf::6                       1                       # What write queue length does an incoming req see
system.mem_ctrls.wrQLenPdf::7                       1                       # What write queue length does an incoming req see
system.mem_ctrls.wrQLenPdf::8                       1                       # What write queue length does an incoming req see
system.mem_ctrls.wrQLenPdf::9                       1                       # What write queue length does an incoming req see
system.mem_ctrls.wrQLenPdf::10                      1                       # What write queue length does an incoming req see
system.mem_ctrls.wrQLenPdf::11                      1                       # What write queue length does an incoming req see
system.mem_ctrls.wrQLenPdf::12                      1                       # What write queue length does an incoming req see
system.mem_ctrls.wrQLenPdf::13                      1                       # What write queue length does an incoming req see
system.mem_ctrls.wrQLenPdf::14                      1                       # What write queue length does an incoming req see
system.mem_ctrls.wrQLenPdf::15                   2992                       # What write queue length does an incoming req see
system.mem_ctrls.wrQLenPdf::16                   3087                       # What write queue length does an incoming req see
system.mem_ctrls.wrQLenPdf::17                   4422                       # What write queue length does an incoming req see
system.mem_ctrls.wrQLenPdf::18                   4973                       # What write queue length does an incoming req see
system.mem_ctrls.wrQLenPdf::19                   4983                       # What write queue length does an incoming req see
system.mem_ctrls.wrQLenPdf::20                   4989                       # What write queue length does an incoming req see
system.mem_ctrls.wrQLenPdf::21                   4986                       # What write queue length does an incoming req see
system.mem_ctrls.wrQLenPdf::22                   4974                       # What write queue length does an incoming req see
system.mem_ctrls.wrQLenPdf::23                   4991                       # What write queue length does an incoming req see
system.mem_ctrls.wrQLenPdf::24                   4982                       # What write queue length does an incoming req see
system.mem_ctrls.wrQLenPdf::25                   4968                       # What write queue length does an incoming req see
system.mem_ctrls.wrQLenPdf::26                   4963                       # What write queue length does an incoming req see
system.mem_ctrls.wrQLenPdf::27                   4996                       # What write queue length does an incoming req see
system.mem_ctrls.wrQLenPdf::28                   5001                       # What write queue length does an incoming req see
system.mem_ctrls.wrQLenPdf::29                   5045                       # What write queue length does an incoming req see
system.mem_ctrls.wrQLenPdf::30                   4930                       # What write queue length does an incoming req see
system.mem_ctrls.wrQLenPdf::31                   4920                       # What write queue length does an incoming req see
system.mem_ctrls.wrQLenPdf::32                   4910                       # What write queue length does an incoming req see
system.mem_ctrls.wrQLenPdf::33                      3                       # What write queue length does an incoming req see
system.mem_ctrls.wrQLenPdf::34                      0                       # What write queue length does an incoming req see
system.mem_ctrls.wrQLenPdf::35                      0                       # What write queue length does an incoming req see
system.mem_ctrls.wrQLenPdf::36                      0                       # What write queue length does an incoming req see
system.mem_ctrls.wrQLenPdf::37                      0                       # What write queue length does an incoming req see
system.mem_ctrls.wrQLenPdf::38                      0                       # What write queue length does an incoming req see
system.mem_ctrls.wrQLenPdf::39                      0                       # What write queue length does an incoming req see
system.mem_ctrls.wrQLenPdf::40                      0                       # What write queue length does an incoming req see
system.mem_ctrls.wrQLenPdf::41                      0                       # What write queue length does an incoming req see
system.mem_ctrls.wrQLenPdf::42                      0                       # What write queue length does an incoming req see
system.mem_ctrls.wrQLenPdf::43                      0                       # What write queue length does an incoming req see
system.mem_ctrls.wrQLenPdf::44                      0                       # What write queue length does an incoming req see
system.mem_ctrls.wrQLenPdf::45                      0                       # What write queue length does an incoming req see
system.mem_ctrls.wrQLenPdf::46                      0                       # What write queue length does an incoming req see
system.mem_ctrls.wrQLenPdf::47                      0                       # What write queue length does an incoming req see
system.mem_ctrls.wrQLenPdf::48                      0                       # What write queue length does an incoming req see
system.mem_ctrls.wrQLenPdf::49                      0                       # What write queue length does an incoming req see
system.mem_ctrls.wrQLenPdf::50                      0                       # What write queue length does an incoming req see
system.mem_ctrls.wrQLenPdf::51                      0                       # What write queue length does an incoming req see
system.mem_ctrls.wrQLenPdf::52                      0                       # What write queue length does an incoming req see
system.mem_ctrls.wrQLenPdf::53                      0                       # What write queue length does an incoming req see
system.mem_ctrls.wrQLenPdf::54                      0                       # What write queue length does an incoming req see
system.mem_ctrls.wrQLenPdf::55                      0                       # What write queue length does an incoming req see
system.mem_ctrls.wrQLenPdf::56                      0                       # What write queue length does an incoming req see
system.mem_ctrls.wrQLenPdf::57                      0                       # What write queue length does an incoming req see
system.mem_ctrls.wrQLenPdf::58                      0                       # What write queue length does an incoming req see
system.mem_ctrls.wrQLenPdf::59                      0                       # What write queue length does an incoming req see
system.mem_ctrls.wrQLenPdf::60                      0                       # What write queue length does an incoming req see
system.mem_ctrls.wrQLenPdf::61                      0                       # What write queue length does an incoming req see
system.mem_ctrls.wrQLenPdf::62                      0                       # What write queue length does an incoming req see
system.mem_ctrls.wrQLenPdf::63                      0                       # What write queue length does an incoming req see
system.mem_ctrls.bytesPerActivate::samples       121152                       # Bytes accessed per row activation
system.mem_ctrls.bytesPerActivate::mean    114.522451                       # Bytes accessed per row activation
system.mem_ctrls.bytesPerActivate::gmean    86.931046                       # Bytes accessed per row activation
system.mem_ctrls.bytesPerActivate::stdev   140.182671                       # Bytes accessed per row activation
system.mem_ctrls.bytesPerActivate::0-127        88754     73.26%     73.26% # Bytes accessed per row activation
system.mem_ctrls.bytesPerActivate::128-255        22167     18.30%     91.56% # Bytes accessed per row activation
system.mem_ctrls.bytesPerActivate::256-383         4098      3.38%     94.94% # Bytes accessed per row activation
system.mem_ctrls.bytesPerActivate::384-511         2166      1.79%     96.73% # Bytes accessed per row activation
system.mem_ctrls.bytesPerActivate::512-639         1633      1.35%     98.07% # Bytes accessed per row activation
system.mem_ctrls.bytesPerActivate::640-767          490      0.40%     98.48% # Bytes accessed per row activation
system.mem_ctrls.bytesPerActivate::768-895          299      0.25%     98.72% # Bytes accessed per row activation
system.mem_ctrls.bytesPerActivate::896-1023          220      0.18%     98.91% # Bytes accessed per row activation
system.mem_ctrls.bytesPerActivate::1024-1151         1325      1.09%    100.00% # Bytes accessed per row activation
system.mem_ctrls.bytesPerActivate::total       121152                       # Bytes accessed per row activation
system.mem_ctrls.rdPerTurnAround::samples         4910                       # Reads before turning the bus around for writes
system.mem_ctrls.rdPerTurnAround::mean      26.817515                       # Reads before turning the bus around for writes
system.mem_ctrls.rdPerTurnAround::gmean     20.135865                       # Reads before turning the bus around for writes
system.mem_ctrls.rdPerTurnAround::stdev     71.187807                       # Reads before turning the bus around for writes
system.mem_ctrls.rdPerTurnAround::0-127          4785     97.45%     97.45% # Reads before turning the bus around for writes
[...]
system.cpu.icache.tags.occ_task_id_percent::1024     0.992188                       # Percentage of cache occupancy per task id
system.cpu.icache.tags.tag_accesses         106439637                       # Number of tag accesses
system.cpu.icache.tags.data_accesses        106439637                       # Number of data accesses
system.cpu.icache.tags.power_state.pwrStateResidencyTicks::UNDEFINED 134093640000                       # Cumulative time (in ticks) in various power states
system.cpu.dtb.walker.power_state.pwrStateResidencyTicks::UNDEFINED 134093640000                       # Cumulative time (in ticks) in various power states
system.cpu.dtb.stage2_mmu.stage2_tlb.walker.power_state.pwrStateResidencyTicks::UNDEFINED 134093640000                       # Cumulative time (in ticks) in various power states
system.cpu.dcache.demand_hits::.cpu.data     38112020                       # number of demand (read+write) hits
system.cpu.dcache.demand_hits::total         38112020                       # number of demand (read+write) hits
system.cpu.dcache.overall_hits::.cpu.data     38112140                       # number of overall hits
system.cpu.dcache.overall_hits::total        38112140                       # number of overall hits
system.cpu.dcache.demand_misses::.cpu.data      1281319                       # number of demand (read+write) misses
system.cpu.dcache.demand_misses::total        1281319                       # number of demand (read+write) misses
system.cpu.dcache.overall_misses::.cpu.data      1281322                       # number of overall misses
system.cpu.dcache.overall_misses::total       1281322                       # number of overall misses
system.cpu.dcache.demand_miss_latency::.cpu.data  28346584500                       # number of demand (read+write) miss cycles
system.cpu.dcache.demand_miss_latency::total  28346584500                       # number of demand (read+write) miss cycles
system.cpu.dcache.overall_miss_latency::.cpu.data  28346584500                       # number of overall miss cycles
system.cpu.dcache.overall_miss_latency::total  28346584500                       # number of overall miss cycles
system.cpu.dcache.demand_accesses::.cpu.data     39393339                       # number of demand (read+write) accesses
system.cpu.dcache.demand_accesses::total     39393339                       # number of demand (read+write) accesses
system.cpu.dcache.overall_accesses::.cpu.data     39393462                       # number of overall (read+write) accesses
system.cpu.dcache.overall_accesses::total     39393462                       # number of overall (read+write) accesses
system.cpu.dcache.demand_miss_rate::.cpu.data     0.032526                       # miss rate for demand accesses
system.cpu.dcache.demand_miss_rate::total     0.032526                       # miss rate for demand accesses
system.cpu.dcache.overall_miss_rate::.cpu.data     0.032526                       # miss rate for overall accesses
system.cpu.dcache.overall_miss_rate::total     0.032526                       # miss rate for overall accesses
system.cpu.dcache.demand_avg_miss_latency::.cpu.data 22122.972109                       # average overall miss latency
system.cpu.dcache.demand_avg_miss_latency::total 22122.972109                       # average overall miss latency
system.cpu.dcache.overall_avg_miss_latency::.cpu.data 22122.920312                       # average overall miss latency
system.cpu.dcache.overall_avg_miss_latency::total 22122.920312                       # average overall miss latency
system.cpu.dcache.blocked_cycles::no_mshrs            0                       # number of cycles access was blocked
system.cpu.dcache.blocked_cycles::no_targets            0                       # number of cycles access was blocked
system.cpu.dcache.blocked::no_mshrs                 0                       # number of cycles access was blocked
system.cpu.dcache.blocked::no_targets               0                       # number of cycles access was blocked
system.cpu.dcache.avg_blocked_cycles::no_mshrs          nan                       # average number of cycles each access was blocked
system.cpu.dcache.avg_blocked_cycles::no_targets          nan                       # average number of cycles each access was blocked
system.cpu.dcache.writebacks::.writebacks       737522                       # number of writebacks
system.cpu.dcache.writebacks::total            737522                       # number of writebacks
system.cpu.dcache.demand_mshr_hits::.cpu.data        38302                       # number of demand (read+write) MSHR hits
system.cpu.dcache.demand_mshr_hits::total        38302                       # number of demand (read+write) MSHR hits
system.cpu.dcache.overall_mshr_hits::.cpu.data        38302                       # number of overall MSHR hits
system.cpu.dcache.overall_mshr_hits::total        38302                       # number of overall MSHR hits
system.cpu.dcache.demand_mshr_misses::.cpu.data      1243017                       # number of demand (read+write) MSHR misses
system.cpu.dcache.demand_mshr_misses::total      1243017                       # number of demand (read+write) MSHR misses
system.cpu.dcache.overall_mshr_misses::.cpu.data      1243020                       # number of overall MSHR misses
system.cpu.dcache.overall_mshr_misses::total      1243020                       # number of overall MSHR misses
system.cpu.dcache.demand_mshr_miss_latency::.cpu.data  24875367500                       # number of demand (read+write) MSHR miss cycles
system.cpu.dcache.demand_mshr_miss_latency::total  24875367500                       # number of demand (read+write) MSHR miss cycles
system.cpu.dcache.overall_mshr_miss_latency::.cpu.data  24875609000                       # number of overall MSHR miss cycles
system.cpu.dcache.overall_mshr_miss_latency::total  24875609000                       # number of overall MSHR miss cycles
system.cpu.dcache.demand_mshr_miss_rate::.cpu.data     0.031554                       # mshr miss rate for demand accesses
system.cpu.dcache.demand_mshr_miss_rate::total     0.031554                       # mshr miss rate for demand accesses
system.cpu.dcache.overall_mshr_miss_rate::.cpu.data     0.031554                       # mshr miss rate for overall accesses
system.cpu.dcache.overall_mshr_miss_rate::total     0.031554                       # mshr miss rate for overall accesses
system.cpu.dcache.demand_avg_mshr_miss_latency::.cpu.data 20012.089537                       # average overall mshr miss latency
system.cpu.dcache.demand_avg_mshr_miss_latency::total 20012.089537                       # average overall mshr miss latency
system.cpu.dcache.overall_avg_mshr_miss_latency::.cpu.data 20012.235523                       # average overall mshr miss latency
system.cpu.dcache.overall_avg_mshr_miss_latency::total 20012.235523                       # average overall mshr miss latency
system.cpu.dcache.replacements                1241996                       # number of replacements
system.cpu.dcache.ReadReq_hits::.cpu.data     28292645                       # number of ReadReq hits
system.cpu.dcache.ReadReq_hits::total        28292645                       # number of ReadReq hits
system.cpu.dcache.ReadReq_misses::.cpu.data       834577                       # number of ReadReq misses
system.cpu.dcache.ReadReq_misses::total        834577                       # number of ReadReq misses
system.cpu.dcache.ReadReq_miss_latency::.cpu.data  13817318500                       # number of ReadReq miss cycles
system.cpu.dcache.ReadReq_miss_latency::total  13817318500                       # number of ReadReq miss cycles
system.cpu.dcache.ReadReq_accesses::.cpu.data     29127222                       # number of ReadReq accesses(hits+misses)
system.cpu.dcache.ReadReq_accesses::total     29127222                       # number of ReadReq accesses(hits+misses)
system.cpu.dcache.ReadReq_miss_rate::.cpu.data     0.028653                       # miss rate for ReadReq accesses
system.cpu.dcache.ReadReq_miss_rate::total     0.028653                       # miss rate for ReadReq accesses
system.cpu.dcache.ReadReq_avg_miss_latency::.cpu.data 16556.073915                       # average ReadReq miss latency
system.cpu.dcache.ReadReq_avg_miss_latency::total 16556.073915                       # average ReadReq miss latency
system.cpu.dcache.ReadReq_mshr_hits::.cpu.data           44                       # number of ReadReq MSHR hits
system.cpu.dcache.ReadReq_mshr_hits::total           44                       # number of ReadReq MSHR hits
system.cpu.dcache.ReadReq_mshr_misses::.cpu.data       834533                       # number of ReadReq MSHR misses
system.cpu.dcache.ReadReq_mshr_misses::total       834533                       # number of ReadReq MSHR misses
system.cpu.dcache.ReadReq_mshr_miss_latency::.cpu.data  12981363500                       # number of ReadReq MSHR miss cycles
system.cpu.dcache.ReadReq_mshr_miss_latency::total  12981363500                       # number of ReadReq MSHR miss cycles
system.cpu.dcache.ReadReq_mshr_miss_rate::.cpu.data     0.028651                       # mshr miss rate for ReadReq accesses
system.cpu.dcache.ReadReq_mshr_miss_rate::total     0.028651                       # mshr miss rate for ReadReq accesses
system.cpu.dcache.ReadReq_avg_mshr_miss_latency::.cpu.data 15555.242872                       # average ReadReq mshr miss latency
system.cpu.dcache.ReadReq_avg_mshr_miss_latency::total 15555.242872                       # average ReadReq mshr miss latency
system.cpu.dcache.WriteReq_hits::.cpu.data      9819375                       # number of WriteReq hits
system.cpu.dcache.WriteReq_hits::total        9819375                       # number of WriteReq hits
system.cpu.dcache.WriteReq_misses::.cpu.data       446735                       # number of WriteReq misses
system.cpu.dcache.WriteReq_misses::total       446735                       # number of WriteReq misses
system.cpu.dcache.WriteReq_miss_latency::.cpu.data  14529045000                       # number of WriteReq miss cycles
system.cpu.dcache.WriteReq_miss_latency::total  14529045000                       # number of WriteReq miss cycles
system.cpu.dcache.WriteReq_accesses::.cpu.data     10266110                       # number of WriteReq accesses(hits+misses)
system.cpu.dcache.WriteReq_accesses::total     10266110                       # number of WriteReq accesses(hits+misses)
system.cpu.dcache.WriteReq_miss_rate::.cpu.data     0.043516                       # miss rate for WriteReq accesses
system.cpu.dcache.WriteReq_miss_rate::total     0.043516                       # miss rate for WriteReq accesses
system.cpu.dcache.WriteReq_avg_miss_latency::.cpu.data 32522.737193                       # average WriteReq miss latency
system.cpu.dcache.WriteReq_avg_miss_latency::total 32522.737193                       # average WriteReq miss latency
system.cpu.dcache.WriteReq_mshr_hits::.cpu.data        38258                       # number of WriteReq MSHR hits
system.cpu.dcache.WriteReq_mshr_hits::total        38258                       # number of WriteReq MSHR hits
system.cpu.dcache.WriteReq_mshr_misses::.cpu.data       408477                       # number of WriteReq MSHR misses
system.cpu.dcache.WriteReq_mshr_misses::total       408477                       # number of WriteReq MSHR misses
system.cpu.dcache.WriteReq_mshr_miss_latency::.cpu.data  11893790000                       # number of WriteReq MSHR miss cycles
system.cpu.dcache.WriteReq_mshr_miss_latency::total  11893790000                       # number of WriteReq MSHR miss cycles
system.cpu.dcache.WriteReq_mshr_miss_rate::.cpu.data     0.039789                       # mshr miss rate for WriteReq accesses
system.cpu.dcache.WriteReq_mshr_miss_rate::total     0.039789                       # mshr miss rate for WriteReq accesses
system.cpu.dcache.WriteReq_avg_mshr_miss_latency::.cpu.data 29117.404407                       # average WriteReq mshr miss latency
system.cpu.dcache.WriteReq_avg_mshr_miss_latency::total 29117.404407                       # average WriteReq mshr miss latency
system.cpu.dcache.SoftPFReq_hits::.cpu.data          120                       # number of SoftPFReq hits
system.cpu.dcache.SoftPFReq_hits::total           120                       # number of SoftPFReq hits
system.cpu.dcache.SoftPFReq_misses::.cpu.data            3                       # number of SoftPFReq misses
system.cpu.dcache.SoftPFReq_misses::total            3                       # number of SoftPFReq misses
system.cpu.dcache.SoftPFReq_accesses::.cpu.data          123                       # number of SoftPFReq accesses(hits+misses)
system.cpu.dcache.SoftPFReq_accesses::total          123                       # number of SoftPFReq accesses(hits+misses)
system.cpu.dcache.SoftPFReq_miss_rate::.cpu.data     0.024390                       # miss rate for SoftPFReq accesses
system.cpu.dcache.SoftPFReq_miss_rate::total     0.024390                       # miss rate for SoftPFReq accesses
system.cpu.dcache.SoftPFReq_mshr_misses::.cpu.data            3                       # number of SoftPFReq MSHR misses
system.cpu.dcache.SoftPFReq_mshr_misses::total            3                       # number of SoftPFReq MSHR misses
system.cpu.dcache.SoftPFReq_mshr_miss_latency::.cpu.data       241500                       # number of SoftPFReq MSHR miss cycles
system.cpu.dcache.SoftPFReq_mshr_miss_latency::total       241500                       # number of SoftPFReq MSHR miss cycles
system.cpu.dcache.SoftPFReq_mshr_miss_rate::.cpu.data     0.024390                       # mshr miss rate for SoftPFReq accesses
system.cpu.dcache.SoftPFReq_mshr_miss_rate::total     0.024390                       # mshr miss rate for SoftPFReq accesses
system.cpu.dcache.SoftPFReq_avg_mshr_miss_latency::.cpu.data        80500                       # average SoftPFReq mshr miss latency
system.cpu.dcache.SoftPFReq_avg_mshr_miss_latency::total        80500                       # average SoftPFReq mshr miss latency
system.cpu.dcache.WriteLineReq_misses::.cpu.data            7                       # number of WriteLineReq misses
system.cpu.dcache.WriteLineReq_misses::total            7                       # number of WriteLineReq misses
system.cpu.dcache.WriteLineReq_miss_latency::.cpu.data       221000                       # number of WriteLineReq miss cycles
system.cpu.dcache.WriteLineReq_miss_latency::total       221000                       # number of WriteLineReq miss cycles
system.cpu.dcache.WriteLineReq_accesses::.cpu.data            7                       # number of WriteLineReq accesses(hits+misses)
system.cpu.dcache.WriteLineReq_accesses::total            7                       # number of WriteLineReq accesses(hits+misses)
system.cpu.dcache.WriteLineReq_miss_rate::.cpu.data            1                       # miss rate for WriteLineReq accesses
system.cpu.dcache.WriteLineReq_miss_rate::total            1                       # miss rate for WriteLineReq accesses
system.cpu.dcache.WriteLineReq_avg_miss_latency::.cpu.data 31571.428571                       # average WriteLineReq miss latency
system.cpu.dcache.WriteLineReq_avg_miss_latency::total 31571.428571                       # average WriteLineReq miss latency
system.cpu.dcache.WriteLineReq_mshr_misses::.cpu.data            7                       # number of WriteLineReq MSHR misses
system.cpu.dcache.WriteLineReq_mshr_misses::total            7                       # number of WriteLineReq MSHR misses
system.cpu.dcache.WriteLineReq_mshr_miss_latency::.cpu.data       214000                       # number of WriteLineReq MSHR miss cycles
system.cpu.dcache.WriteLineReq_mshr_miss_latency::total       214000                       # number of WriteLineReq MSHR miss cycles
system.cpu.dcache.WriteLineReq_mshr_miss_rate::.cpu.data            1                       # mshr miss rate for WriteLineReq accesses
system.cpu.dcache.WriteLineReq_mshr_miss_rate::total            1                       # mshr miss rate for WriteLineReq accesses
system.cpu.dcache.WriteLineReq_avg_mshr_miss_latency::.cpu.data 30571.428571                       # average WriteLineReq mshr miss latency
system.cpu.dcache.WriteLineReq_avg_mshr_miss_latency::total 30571.428571                       # average WriteLineReq mshr miss latency
system.cpu.dcache.LoadLockedReq_hits::.cpu.data           36                       # number of LoadLockedReq hits
system.cpu.dcache.LoadLockedReq_hits::total           36                       # number of LoadLockedReq hits
system.cpu.dcache.LoadLockedReq_accesses::.cpu.data           36                       # number of LoadLockedReq accesses(hits+misses)
system.cpu.dcache.LoadLockedReq_accesses::total           36                       # number of LoadLockedReq accesses(hits+misses)
system.cpu.dcache.StoreCondReq_hits::.cpu.data           36                       # number of StoreCondReq hits
system.cpu.dcache.StoreCondReq_hits::total           36                       # number of StoreCondReq hits
system.cpu.dcache.StoreCondReq_accesses::.cpu.data           36                       # number of StoreCondReq accesses(hits+misses)
system.cpu.dcache.StoreCondReq_accesses::total           36                       # number of StoreCondReq accesses(hits+misses)
system.cpu.dcache.power_state.pwrStateResidencyTicks::UNDEFINED 134093640000                       # Cumulative time (in ticks) in various power states
system.cpu.dcache.tags.tagsinuse          1022.552270                       # Cycle average of tags in use
system.cpu.dcache.tags.total_refs            39355232                       # Total number of references to valid blocks.
system.cpu.dcache.tags.sampled_refs           1243020                       # Sample count of references to valid blocks.
system.cpu.dcache.tags.avg_refs             31.660981                       # Average number of references to valid blocks.
system.cpu.dcache.tags.warmup_cycle            177500                       # Cycle when the warmup percentage was hit.
system.cpu.dcache.tags.occ_blocks::.cpu.data  1022.552270                       # Average occupied blocks per requestor
system.cpu.dcache.tags.occ_percent::.cpu.data     0.998586                       # Average percentage of cache occupancy
system.cpu.dcache.tags.occ_percent::total     0.998586                       # Average percentage of cache occupancy
system.cpu.dcache.tags.occ_task_id_blocks::1024         1024                       # Occupied blocks per task id
system.cpu.dcache.tags.age_task_id_blocks_1024::0           52                       # Occupied blocks per task id
system.cpu.dcache.tags.age_task_id_blocks_1024::1          629                       # Occupied blocks per task id
system.cpu.dcache.tags.age_task_id_blocks_1024::2          343                       # Occupied blocks per task id
system.cpu.dcache.tags.occ_task_id_percent::1024            1                       # Percentage of cache occupancy per task id
system.cpu.dcache.tags.tag_accesses          80030088                       # Number of tag accesses
system.cpu.dcache.tags.data_accesses         80030088                       # Number of data accesses
system.cpu.dcache.tags.power_state.pwrStateResidencyTicks::UNDEFINED 134093640000                       # Cumulative time (in ticks) in various power states
system.cpu.power_state.pwrStateResidencyTicks::ON 134093640000                       # Cumulative time (in ticks) in various power states
system.cpu.itb.walker.power_state.pwrStateResidencyTicks::UNDEFINED 134093640000                       # Cumulative time (in ticks) in various power states
system.cpu.itb.stage2_mmu.stage2_tlb.walker.power_state.pwrStateResidencyTicks::UNDEFINED 134093640000                       # Cumulative time (in ticks) in various power states

---------- End Simulation Statistics   ----------
